@<TRIPOS>MOLECULE
1WOFA - hbond-opt_ligand
90   91    1
SMALL
USER_CHARGES


@<TRIPOS>ATOM
      1 N1        -12.9237    3.5911   73.8850 N.2       1 I12        -0.0600 
      2 C1        -12.2538    4.7096   73.6465 C.2       1 I12         0.1400 
      3 C2        -11.0487    4.7737   74.4018 C.2       1 I12        -0.4200 
      4 C3        -11.0518    3.6076   75.1127 C.2       1 I12         0.2400 
      5 C4        -10.1057    3.0162   76.0999 C.3       1 I12        -0.1900 
      6 O1        -12.1625    2.8823   74.8213 O.3       1 I12        -0.2100 
      7 C5        -12.6414    5.8175   72.7120 C.2       1 I12         0.4900 
      8 O2        -12.3085    5.8050   71.5259 O.2       1 I12        -0.5000 
      9 N2        -13.3577    6.8035   73.2732 N.am      1 I12        -0.4400 
     10 C6        -13.7395    8.0471   72.6101 C.3       1 I12         0.0200 
     11 C7        -12.4917    8.8915   72.3118 C.2       1 I12         0.4900 
     12 O3        -11.6016    9.0143   73.1549 O.2       1 I12        -0.5300 
     13 C8        -14.6399    8.8464   73.5666 C.3       1 I12        -0.1900 
     14 N3        -12.4495    9.4851   71.1101 N.am      1 I12        -0.4100 
     15 C9        -11.4105   10.4133   70.6667 C.3       1 I12         0.0200 
     16 C10       -10.5660    9.7360   69.5484 C.3       1 I12        -0.1000 
     17 C11        -9.4480   10.6498   69.0037 C.3       1 I12        -0.1700 
     18 C12        -9.9467    8.4066   70.0238 C.3       1 I12        -0.1700 
     19 C13       -12.0996   11.6780   70.1236 C.2       1 I12         0.4900 
     20 O4        -12.6973   11.6531   69.0462 O.2       1 I12        -0.5300 
     21 N4        -11.9995   12.7779   70.8819 N.am      1 I12        -0.4300 
     22 C14       -12.6346   14.0591   70.5890 C.3       1 I12         0.0200 
     23 C15       -12.8092   14.8439   71.9108 C.3       1 I12        -0.1400 
     24 C16       -14.2556   14.8987   72.4564 C.3       1 I12        -0.0800 
     25 C17       -14.4472   15.9953   73.5174 C.3       1 I12        -0.1700 
     26 C18       -14.6719   13.5309   73.0181 C.3       1 I12        -0.1700 
     27 C19       -11.7131   14.8728   69.6673 C.2       1 I12         0.4900 
     28 O5        -10.5222   15.0208   69.9466 O.2       1 I12        -0.5200 
     29 N5        -12.2840   15.4050   68.5764 N.am      1 I12        -0.5600 
     30 C20       -11.5861   15.7460   67.3417 C.3       1 I12         0.1600 
     31 C21       -11.3842   14.4977   66.5019 C.2       1 I12        -0.1000 
     32 C22       -12.1108   14.2071   65.4056 C.2       1 I12        -0.1800 
     33 C23       -11.9125   12.9950   64.5895 C.2       1 I12         0.4500 
     34 O6        -12.6400   12.7095   63.6385 O.2       1 I12        -0.4600 
     35 O7        -10.8637   12.2473   64.9898 O.3       1 I12        -0.3100 
     36 C24       -10.5648   11.0351   64.3176 C.3       1 I12         0.1500 
     37 C25        -9.9276   11.3541   62.9629 C.3       1 I12        -0.2200 
     38 C26       -10.2454   16.4274   67.6909 C.3       1 I12        -0.1200 
     39 C27        -9.5286   17.1226   66.5370 C.3       1 I12        -0.1100 
     40 C28        -8.0799   17.4778   66.9035 C.3       1 I12        -0.1500 
     41 C29        -8.0513   19.0032   67.0936 C.3       1 I12         0.1100 
     42 N6         -9.3325   19.4611   66.5885 N.am      1 I12        -0.6000 
     43 C30       -10.1673   18.4752   66.2831 C.2       1 I12         0.4900 
     44 O8        -11.3004   18.6194   65.8543 O.2       1 I12        -0.5100 
     45 H2        -10.3028    5.5546   74.4178 H         1 I12         0.2200 
     46 H41        -9.2463    3.6683   76.2555 H         1 I12         0.0900 
     47 H42       -10.5958    2.8667   77.0620 H         1 I12         0.0900 
     48 H43        -9.7393    2.0503   75.7523 H         1 I12         0.0900 
     49 HN2       -13.6057    6.6994   74.2464 H         1 I12         0.3200 
     50 H6        -14.2828    7.8290   71.6884 H         1 I12         0.0700 
     51 H81       -14.9513    9.7909   73.1181 H         1 I12         0.0800 
     52 H82       -15.5449    8.2883   73.8080 H         1 I12         0.0800 
     53 H83       -14.1336    9.0769   74.5055 H         1 I12         0.0800 
     54 HN3       -13.2057    9.3103   70.4656 H         1 I12         0.3000 
     55 H9        -10.7620   10.6692   71.5076 H         1 I12         0.0800 
     56 H10       -11.2252    9.5004   68.7107 H         1 I12         0.0800 
     57 H111       -8.7741   10.9678   69.7998 H         1 I12         0.0600 
     58 H112       -8.8504   10.1334   68.2521 H         1 I12         0.0600 
     59 H113       -9.8441   11.5465   68.5262 H         1 I12         0.0600 
     60 H121       -9.2974    8.5604   70.8862 H         1 I12         0.0600 
     61 H122      -10.7066    7.6781   70.3071 H         1 I12         0.0600 
     62 H123       -9.3473    7.9486   69.2364 H         1 I12         0.0600 
     63 HN4       -11.4123   12.7379   71.7015 H         1 I12         0.3100 
     64 H14       -13.6013   13.9094   70.1054 H         1 I12         0.0700 
     65 H151      -12.1662   14.4056   72.6769 H         1 I12         0.0900 
     66 H152      -12.4477   15.8645   71.7727 H         1 I12         0.0900 
     67 H16       -14.9326   15.1186   71.6298 H         1 I12         0.0600 
     68 H171      -13.7597   15.8648   74.3536 H         1 I12         0.0600 
     69 H172      -14.2870   16.9897   73.1010 H         1 I12         0.0600 
     70 H173      -15.4618   15.9795   73.9165 H         1 I12         0.0600 
     71 H181      -14.0439   13.2393   73.8605 H         1 I12         0.0600 
     72 H182      -15.7062   13.5453   73.3634 H         1 I12         0.0600 
     73 H183      -14.5930   12.7522   72.2588 H         1 I12         0.0600 
     74 HN5       -13.2807   15.5618   68.5984 H         1 I12         0.3000 
     75 H20       -12.2108   16.4476   66.7879 H         1 I12         0.1100 
     76 H22       -12.8881   14.8874   65.0886 H         1 I12         0.1500 
     77 H241      -11.4778   10.4550   64.1760 H         1 I12         0.0400 
     78 H242       -9.8824   10.4349   64.9210 H         1 I12         0.0400 
     79 H251       -9.6861   10.4383   62.4234 H         1 I12         0.0700 
     80 H252       -9.0052   11.9219   63.0877 H         1 I12         0.0700 
     81 H253      -10.6031   11.9410   62.3403 H         1 I12         0.0700 
     82 H261      -10.4153   17.1524   68.4889 H         1 I12         0.0900 
     83 H262       -9.5719   15.6792   68.1116 H         1 I12         0.0900 
     84 H27        -9.5864   16.4861   65.6540 H         1 I12         0.1000 
     85 H281       -7.7501   16.9570   67.8024 H         1 I12         0.0800 
     86 H282       -7.4085   17.1873   66.0954 H         1 I12         0.0800 
     87 H291       -7.2258   19.4655   66.5523 H         1 I12         0.0700 
     88 H292       -7.9575   19.2686   68.1467 H         1 I12         0.0700 
     89 HN6        -9.5610   20.4405   66.4951 H         1 I12         0.3100 
     90 H21       -10.5997   13.8361   66.8398 H         1 I12         0.1400 
@<TRIPOS>BOND
     1    1    2 2    
     2    1    6 1    
     3    2    3 1    
     4    2    7 1    
     5    3    4 2    
     6    3   45 1    
     7    4    5 1    
     8    4    6 1    
     9    5   46 1    
    10    5   47 1    
    11    5   48 1    
    12    7    8 2    
    13    7    9 am   BACKBONE|DICT|INTERRES
    14    9   10 1    
    15    9   49 1    
    16   10   11 1    
    17   10   13 1    
    18   10   50 1    
    19   11   12 2    
    20   11   14 am   BACKBONE|DICT|INTERRES
    21   13   51 1    
    22   13   52 1    
    23   13   53 1    
    24   14   15 1    
    25   14   54 1    
    26   15   16 1    
    27   15   19 1    
    28   15   55 1    
    29   16   17 1    
    30   16   18 1    
    31   16   56 1    
    32   17   57 1    
    33   17   58 1    
    34   17   59 1    
    35   18   60 1    
    36   18   61 1    
    37   18   62 1    
    38   19   20 2    
    39   19   21 am   BACKBONE|DICT|INTERRES
    40   21   22 1    
    41   21   63 1    
    42   22   23 1    
    43   22   27 1    
    44   22   64 1    
    45   23   24 1    
    46   23   65 1    
    47   23   66 1    
    48   24   25 1    
    49   24   26 1    
    50   24   67 1    
    51   25   68 1    
    52   25   69 1    
    53   25   70 1    
    54   26   71 1    
    55   26   72 1    
    56   26   73 1    
    57   27   28 2    
    58   27   29 am   BACKBONE|DICT|INTERRES
    59   29   30 1    
    60   29   74 1    
    61   30   31 1    
    62   30   38 1    
    63   30   75 1    
    64   31   32 2    
    65   31   90 1    
    66   32   33 1    
    67   32   76 1    
    68   33   34 2    
    69   33   35 1    
    70   35   36 1    
    71   36   37 1    
    72   36   77 1    
    73   36   78 1    
    74   37   79 1    
    75   37   80 1    
    76   37   81 1    
    77   38   39 1    
    78   38   82 1    
    79   38   83 1    
    80   39   40 1    
    81   39   43 1    
    82   39   84 1    
    83   40   41 1    
    84   40   85 1    
    85   40   86 1    
    86   41   42 1    
    87   41   87 1    
    88   41   88 1    
    89   42   43 am   BACKBONE|DICT|INTERRES
    90   42   89 1    
    91   43   44 2    
@<TRIPOS>SUBSTRUCTURE
     1 I12         1 GROUP             0 A     ****    0 ROOT    
