@<TRIPOS>MOLECULE
2D2DB - hbond-opt_ligand
82   83    1
SMALL
USER_CHARGES


@<TRIPOS>ATOM
      1 C1        -11.1634   15.6179   67.1940 C.3       1 ENB         0.1600 
      2 C2        -11.2644   14.7241   65.9599 C.2       1 ENB        -0.1000 
      3 N1        -11.6749   14.9213   68.3695 N.am      1 ENB        -0.5600 
      4 C3        -11.8819   15.4333   69.5900 C.2       1 ENB         0.5000 
      5 C4        -12.6262   14.4886   70.5622 C.3       1 ENB         0.0200 
      6 O1        -11.5296   16.5639   69.9334 O.2       1 ENB        -0.5200 
      7 N2        -11.9269   13.2195   70.8173 N.am      1 ENB        -0.4300 
      8 C5        -13.0562   15.1398   71.8518 C.ar      1 ENB        -0.0500 
      9 C6        -12.2583   15.1516   73.0015 C.ar      1 ENB        -0.0900 
     10 C7        -12.7299   15.7148   74.1825 C.ar      1 ENB        -0.1300 
     11 C8        -13.9672   16.3332   74.1973 C.ar      1 ENB        -0.1100 
     12 C9        -14.7357   16.3770   73.0425 C.ar      1 ENB        -0.1300 
     13 C10       -14.2996   15.7599   71.8859 C.ar      1 ENB        -0.0900 
     14 C11       -11.9471   12.1321   70.0253 C.2       1 ENB         0.4900 
     15 C12       -11.1130   10.9261   70.5061 C.3       1 ENB         0.0300 
     16 O2        -12.5984   12.0679   68.9809 O.2       1 ENB        -0.5200 
     17 N3        -12.0502    9.8494   70.8677 N.am      1 ENB        -0.3700 
     18 C13       -11.8360    9.0776   71.9962 C.2       1 ENB         0.6100 
     19 O3        -12.8725    8.2177   72.1273 O.3       1 ENB        -0.3300 
     20 O4        -10.8666    9.1528   72.7508 O.2       1 ENB        -0.5700 
     21 C14       -12.8263    6.9397   72.7833 C.3       1 ENB         0.3000 
     22 C15        -9.7136   16.1859   67.3935 C.3       1 ENB        -0.1200 
     23 C16        -9.3607   17.6658   66.9970 C.3       1 ENB        -0.1100 
     24 C17        -8.7992   18.4959   68.1537 C.3       1 ENB        -0.1500 
     25 C18        -9.9402   19.4005   68.5785 C.3       1 ENB         0.1100 
     26 N4        -10.7305   19.4952   67.3623 N.am      1 ENB        -0.6000 
     27 C19       -10.5349   18.5130   66.4689 C.2       1 ENB         0.4900 
     28 O5        -11.1297   18.3523   65.4061 O.2       1 ENB        -0.5100 
     29 C20       -10.0772   10.4956   69.4092 C.3       1 ENB        -0.1000 
     30 C21       -10.6502    9.9304   68.0916 C.3       1 ENB        -0.1700 
     31 C22        -9.0400    9.5062   69.9770 C.3       1 ENB        -0.1700 
     32 C23       -12.0866    6.9240   74.1428 C.3       1 ENB        -0.2300 
     33 C24       -12.1851    5.9319   71.8063 C.3       1 ENB        -0.2300 
     34 C25       -14.3095    6.5864   73.0153 C.3       1 ENB        -0.2300 
     35 C26       -12.0976   13.6670   65.8157 C.2       1 ENB        -0.1700 
     36 C27       -12.0903   12.8086   64.6499 C.2       1 ENB         0.4500 
     37 O6        -10.8441   12.5306   64.2048 O.3       1 ENB        -0.3100 
     38 O7        -13.1300   12.3766   64.1539 O.2       1 ENB        -0.4600 
     39 C28       -10.6372   11.7336   63.0470 C.3       1 ENB         0.1500 
     40 C29       -10.7104   10.2427   63.3718 C.3       1 ENB        -0.2200 
     41 H1        -11.8930   16.4067   67.0167 H         1 ENB         0.1100 
     42 HN1       -12.0216   13.9819   68.2151 H         1 ENB         0.3000 
     43 H4        -13.5428   14.2246   70.0320 H         1 ENB         0.0700 
     44 HN2       -11.2912   13.2193   71.6045 H         1 ENB         0.3100 
     45 H6        -11.2660   14.7255   72.9859 H         1 ENB         0.1300 
     46 H7        -12.1376   15.7057   75.0814 H         1 ENB         0.1300 
     47 H8        -14.3272   16.7770   75.1096 H         1 ENB         0.1200 
     48 H9        -15.6633   16.9159   73.0044 H         1 ENB         0.1300 
     49 H10       -14.9212   15.8039   71.0048 H         1 ENB         0.1300 
     50 H12       -10.5422   11.2426   71.3848 H         1 ENB         0.0700 
     51 HN3       -12.8008    9.6037   70.2351 H         1 ENB         0.2700 
     52 H151       -9.4139   16.0273   68.4292 H         1 ENB         0.0900 
     53 H152       -9.0155   15.5296   66.8723 H         1 ENB         0.0900 
     54 H16        -8.5951   17.6500   66.2217 H         1 ENB         0.1000 
     55 H171       -8.4040   17.9187   68.9911 H         1 ENB         0.0800 
     56 H172       -7.9715   19.1104   67.7933 H         1 ENB         0.0800 
     57 H181       -9.5788   20.3806   68.8881 H         1 ENB         0.0700 
     58 H182      -10.5370   18.9838   69.3932 H         1 ENB         0.0700 
     59 HN4       -11.4648   20.1785   67.2551 H         1 ENB         0.3100 
     60 H20        -9.5005   11.3820   69.1413 H         1 ENB         0.0800 
     61 H211      -11.3662    9.1301   68.2759 H         1 ENB         0.0600 
     62 H212      -11.1300   10.7027   67.4937 H         1 ENB         0.0600 
     63 H213       -9.8633    9.5152   67.4640 H         1 ENB         0.0600 
     64 H221       -9.4963    8.5474   70.2237 H         1 ENB         0.0600 
     65 H222       -8.2424    9.3127   69.2601 H         1 ENB         0.0600 
     66 H223       -8.5766    9.8958   70.8837 H         1 ENB         0.0600 
     67 H231      -12.3742    7.7743   74.7613 H         1 ENB         0.0700 
     68 H232      -12.3002    6.0146   74.7060 H         1 ENB         0.0700 
     69 H233      -11.0048    6.9673   74.0212 H         1 ENB         0.0700 
     70 H241      -12.6975    5.9376   70.8424 H         1 ENB         0.0700 
     71 H242      -11.1399    6.1756   71.6148 H         1 ENB         0.0700 
     72 H243      -12.2222    4.9152   72.1963 H         1 ENB         0.0700 
     73 H251      -14.8904    6.6531   72.0946 H         1 ENB         0.0700 
     74 H252      -14.4309    5.5759   73.4086 H         1 ENB         0.0700 
     75 H253      -14.7660    7.2730   73.7296 H         1 ENB         0.0700 
     76 H26       -12.8162   13.3991   66.5754 H         1 ENB         0.1500 
     77 H281       -9.6470   11.9651   62.6592 H         1 ENB         0.0400 
     78 H282      -11.3545   11.9973   62.2669 H         1 ENB         0.0400 
     79 H291      -10.5192    9.6356   62.4857 H         1 ENB         0.0700 
     80 H292      -11.6976    9.9771   63.7523 H         1 ENB         0.0700 
     81 H293       -9.9719    9.9777   64.1285 H         1 ENB         0.0700 
     82 H2        -10.5908   14.9795   65.1527 H         1 ENB         0.1400 
@<TRIPOS>BOND
     1    1    2 1    
     2    1    3 1    
     3    1   22 1    
     4    1   41 1    
     5    2   35 2    
     6    2   82 1    
     7    3    4 am   BACKBONE|DICT|INTERRES
     8    3   42 1    
     9    4    5 1    
    10    4    6 2    
    11    5    7 1    
    12    5    8 1    
    13    5   43 1    
    14    7   14 am   BACKBONE|DICT|INTERRES
    15    7   44 1    
    16    8    9 ar   
    17    8   13 ar   
    18    9   10 ar   
    19    9   45 1    
    20   10   11 ar   
    21   10   46 1    
    22   11   12 ar   
    23   11   47 1    
    24   12   13 ar   
    25   12   48 1    
    26   13   49 1    
    27   14   15 1    
    28   14   16 2    
    29   15   17 1    
    30   15   29 1    
    31   15   50 1    
    32   17   18 am   BACKBONE|DICT|INTERRES
    33   17   51 1    
    34   18   19 1    
    35   18   20 2    
    36   19   21 1    
    37   21   32 1    
    38   21   33 1    
    39   21   34 1    
    40   22   23 1    
    41   22   52 1    
    42   22   53 1    
    43   23   24 1    
    44   23   27 1    
    45   23   54 1    
    46   24   25 1    
    47   24   55 1    
    48   24   56 1    
    49   25   26 1    
    50   25   57 1    
    51   25   58 1    
    52   26   27 am   BACKBONE|DICT|INTERRES
    53   26   59 1    
    54   27   28 2    
    55   29   30 1    
    56   29   31 1    
    57   29   60 1    
    58   30   61 1    
    59   30   62 1    
    60   30   63 1    
    61   31   64 1    
    62   31   65 1    
    63   31   66 1    
    64   32   67 1    
    65   32   68 1    
    66   32   69 1    
    67   33   70 1    
    68   33   71 1    
    69   33   72 1    
    70   34   73 1    
    71   34   74 1    
    72   34   75 1    
    73   35   36 1    
    74   35   76 1    
    75   36   37 1    
    76   36   38 2    
    77   37   39 1    
    78   39   40 1    
    79   39   77 1    
    80   39   78 1    
    81   40   79 1    
    82   40   80 1    
    83   40   81 1    
@<TRIPOS>SUBSTRUCTURE
     1 ENB         1 GROUP             0 B     ****    0 ROOT    
