@<TRIPOS>MOLECULE
2GX4 - hbond-opt_ligand
93   95    1
SMALL
USER_CHARGES


@<TRIPOS>ATOM
      1 C1        -12.6405    7.2981   71.8651 C.ar      1 NOL        -0.1000 
      2 C2        -12.7098    8.6514   71.5309 C.ar      1 NOL        -0.1000 
      3 C3        -13.6676    9.4744   72.1392 C.ar      1 NOL        -0.1000 
      4 C4        -14.5498    8.9444   73.0723 C.ar      1 NOL        -0.1300 
      5 C5        -14.4640    7.5972   73.4046 C.ar      1 NOL        -0.1100 
      6 C6        -13.5168    6.7718   72.8088 C.ar      1 NOL        -0.1300 
      7 C13       -11.7514    9.1885   70.4701 C.3       1 NOL         0.1800 
      8 O15       -11.3961   10.5443   70.7131 O.3       1 NOL        -0.3100 
      9 C17       -11.9592   11.5606   70.0348 C.2       1 NOL         0.5900 
     10 N19       -11.5287   12.7449   70.6047 N.am      1 NOL        -0.3500 
     11 C21       -11.9222   14.0625   70.0838 C.3       1 NOL         0.0100 
     12 C23       -11.1542   14.3753   68.7804 C.2       1 NOL         0.4900 
     13 N25       -11.8567   14.9826   67.8054 N.am      1 NOL        -0.4300 
     14 C27       -11.4257   15.1130   66.4090 C.3       1 NOL         0.0300 
     15 C29       -11.4800   13.7053   65.7645 C.2       1 NOL         0.4900 
     16 N31       -10.4345   13.3294   65.0053 N.am      1 NOL        -0.5700 
     17 C33       -10.0868   11.9672   64.5752 C.3       1 NOL         0.1200 
     18 C35       -11.2435   11.1138   63.9845 C.3       1 NOL         0.1300 
     19 O39       -11.9754   11.8165   63.0049 O.3       1 NOL        -0.6500 
     20 C41        -9.3290   11.2249   65.7079 C.3       1 NOL        -0.1200 
     21 C43        -8.5360    9.9699   65.2540 C.3       1 NOL        -0.1100 
     22 C45        -8.0913    9.0829   66.4115 C.3       1 NOL        -0.1400 
     23 C47        -6.6293    9.4250   66.6273 C.3       1 NOL         0.1000 
     24 N49        -6.2282    9.9358   65.3243 N.am      1 NOL        -0.6000 
     25 C51        -7.2310   10.3558   64.5352 C.2       1 NOL         0.4900 
     26 O54        -7.1301   10.8844   63.4315 O.2       1 NOL        -0.5100 
     27 O56       -12.4597   12.9938   65.9943 O.2       1 NOL        -0.5100 
     28 C58       -10.0593   15.8491   66.2181 C.3       1 NOL        -0.1400 
     29 C60        -9.8005   17.1308   67.0555 C.3       1 NOL        -0.0700 
     30 C62        -8.3414   17.6162   66.8726 C.3       1 NOL        -0.1200 
     31 C63        -8.0196   18.8359   67.7567 C.3       1 NOL        -0.1200 
     32 C64        -9.0137   19.9870   67.5086 C.3       1 NOL        -0.1200 
     33 C65       -10.4779   19.5244   67.6451 C.3       1 NOL        -0.1200 
     34 C66       -10.7786   18.2927   66.7579 C.3       1 NOL        -0.1200 
     35 O73        -9.9632   14.0690   68.6842 O.2       1 NOL        -0.5300 
     36 C75       -11.6599   15.1543   71.1592 C.3       1 NOL         0.2000 
     37 C77       -11.9953   16.5972   70.7526 C.3       1 NOL        -0.2300 
     38 O79       -12.1477   14.8001   72.4617 O.3       1 NOL        -0.4600 
     39 C81       -13.5203   14.8091   72.8848 C.3       1 NOL         0.3100 
     40 C83       -13.9709   13.3495   73.0419 C.3       1 NOL        -0.2300 
     41 C85       -14.5475   15.5851   72.0355 C.3       1 NOL        -0.2300 
     42 C87       -13.4009   15.4902   74.2545 C.3       1 NOL        -0.2300 
     43 O89       -12.7294   11.4459   69.0781 O.2       1 NOL        -0.5700 
     44 H1        -11.9101    6.6557   71.3968 H         1 NOL         0.1300 
     45 H3        -13.7536   10.5160   71.8799 H         1 NOL         0.1300 
     46 H4        -15.2931    9.5773   73.5362 H         1 NOL         0.1300 
     47 H5        -15.1296    7.1888   74.1506 H         1 NOL         0.1300 
     48 H6        -13.4630    5.7286   73.0774 H         1 NOL         0.1300 
     49 H131      -10.8266    8.6117   70.5064 H         1 NOL         0.0500 
     50 H132      -12.1764    9.0390   69.4760 H         1 NOL         0.0500 
     51 HN19      -10.8443   12.7184   71.3498 H         1 NOL         0.2600 
     52 H21       -12.9919   14.0454   69.8679 H         1 NOL         0.0800 
     53 HN25      -12.8309   15.1960   67.9716 H         1 NOL         0.3100 
     54 H27       -12.1891   15.7002   65.9067 H         1 NOL         0.0600 
     55 HN31       -9.7041   14.0077   64.8623 H         1 NOL         0.2900 
     56 H33        -9.3813   12.1261   63.7576 H         1 NOL         0.1200 
     57 H35       -10.8643   10.2165   63.4962 H         1 NOL         0.0400 
     58 HO39      -11.5505   11.6647   62.1532 H         1 NOL         0.4200 
     59 H411       -8.6526   11.9160   66.2205 H         1 NOL         0.0700 
     60 H412      -10.0584   10.9394   66.4721 H         1 NOL         0.0700 
     61 H43        -9.1295    9.3665   64.5723 H         1 NOL         0.1200 
     62 H451       -8.6845    9.1941   67.3191 H         1 NOL         0.0800 
     63 H452       -8.1819    8.0365   66.1175 H         1 NOL         0.0800 
     64 H471       -6.0526    8.5387   66.8978 H         1 NOL         0.0700 
     65 H472       -6.4766   10.1816   67.3985 H         1 NOL         0.0700 
     66 HN49       -5.2602   10.0572   65.0719 H         1 NOL         0.3100 
     67 H581       -9.2518   15.1505   66.4451 H         1 NOL         0.0900 
     68 H582       -9.9587   16.1044   65.1646 H         1 NOL         0.0900 
     69 H60        -9.9123   16.8856   68.1123 H         1 NOL         0.0600 
     70 H621       -7.6524   16.8039   67.1121 H         1 NOL         0.0700 
     71 H622       -8.1444   17.8496   65.8260 H         1 NOL         0.0700 
     72 H631       -8.0497   18.5462   68.8084 H         1 NOL         0.0600 
     73 H632       -7.0013   19.1777   67.5653 H         1 NOL         0.0600 
     74 H641       -8.8187   20.8066   68.2024 H         1 NOL         0.0600 
     75 H642       -8.8550   20.3924   66.5076 H         1 NOL         0.0600 
     76 H651      -10.6860   19.2789   68.6863 H         1 NOL         0.0600 
     77 H652      -11.1324   20.3578   67.3974 H         1 NOL         0.0600 
     78 H661      -10.7255   18.5675   65.7029 H         1 NOL         0.0700 
     79 H662      -11.8061   17.9581   66.9118 H         1 NOL         0.0700 
     80 H75       -10.5836   15.1591   71.3401 H         1 NOL         0.0500 
     81 H771      -11.1928   17.0511   70.1681 H         1 NOL         0.0700 
     82 H772      -12.9044   16.6538   70.1554 H         1 NOL         0.0700 
     83 H773      -12.1394   17.1987   71.6445 H         1 NOL         0.0700 
     84 H831      -13.3514   12.8060   73.7538 H         1 NOL         0.0700 
     85 H832      -14.9982   13.2821   73.3997 H         1 NOL         0.0700 
     86 H833      -13.9228   12.8238   72.0896 H         1 NOL         0.0700 
     87 H851      -14.3456   16.6540   72.0280 H         1 NOL         0.0700 
     88 H852      -14.5667   15.2390   71.0054 H         1 NOL         0.0700 
     89 H853      -15.5597   15.4639   72.4221 H         1 NOL         0.0700 
     90 H871      -12.9912   16.4958   74.1562 H         1 NOL         0.0700 
     91 H872      -14.3611   15.5793   74.7532 H         1 NOL         0.0700 
     92 H873      -12.7292   14.9412   74.9119 H         1 NOL         0.0700 
     93 H35       -11.9290   10.7876   64.7674 H         1 NOL         0.0400 
@<TRIPOS>BOND
     1    1    2 ar   
     2    1    6 ar   
     3    1   44 1    
     4    2    3 ar   
     5    2    7 1    
     6    3    4 ar   
     7    3   45 1    
     8    4    5 ar   
     9    4   46 1    
    10    5    6 ar   
    11    5   47 1    
    12    6   48 1    
    13    7    8 1    
    14    7   49 1    
    15    7   50 1    
    16    8    9 1    
    17    9   10 am   BACKBONE|DICT|INTERRES
    18    9   43 2    
    19   10   11 1    
    20   10   51 1    
    21   11   12 1    
    22   11   36 1    
    23   11   52 1    
    24   12   13 am   BACKBONE|DICT|INTERRES
    25   12   35 2    
    26   13   14 1    
    27   13   53 1    
    28   14   15 1    
    29   14   28 1    
    30   14   54 1    
    31   15   16 am   BACKBONE|DICT|INTERRES
    32   15   27 2    
    33   16   17 1    
    34   16   55 1    
    35   17   18 1    
    36   17   20 1    
    37   17   56 1    
    38   18   19 1    
    39   18   57 1    
    40   18   93 1    
    41   19   58 1    
    42   20   21 1    
    43   20   59 1    
    44   20   60 1    
    45   21   22 1    
    46   21   25 1    
    47   21   61 1    
    48   22   23 1    
    49   22   62 1    
    50   22   63 1    
    51   23   24 1    
    52   23   64 1    
    53   23   65 1    
    54   24   25 am   BACKBONE|DICT|INTERRES
    55   24   66 1    
    56   25   26 2    
    57   28   29 1    
    58   28   67 1    
    59   28   68 1    
    60   29   30 1    
    61   29   34 1    
    62   29   69 1    
    63   30   31 1    
    64   30   70 1    
    65   30   71 1    
    66   31   32 1    
    67   31   72 1    
    68   31   73 1    
    69   32   33 1    
    70   32   74 1    
    71   32   75 1    
    72   33   34 1    
    73   33   76 1    
    74   33   77 1    
    75   34   78 1    
    76   34   79 1    
    77   36   37 1    
    78   36   38 1    
    79   36   80 1    
    80   37   81 1    
    81   37   82 1    
    82   37   83 1    
    83   38   39 1    
    84   39   40 1    
    85   39   41 1    
    86   39   42 1    
    87   40   84 1    
    88   40   85 1    
    89   40   86 1    
    90   41   87 1    
    91   41   88 1    
    92   41   89 1    
    93   42   90 1    
    94   42   91 1    
    95   42   92 1    
@<TRIPOS>SUBSTRUCTURE
     1 NOL         1 GROUP             0 A     ****    0 ROOT    
