@<TRIPOS>MOLECULE
2QIQ - hbond-opt_ligand
99   99    1
SMALL
USER_CHARGES


@<TRIPOS>ATOM
      1 O43       -10.5949    3.7829   74.4290 O.2       1 CYV        -0.5700 
      2 C42       -11.7895    4.0672   74.5112 C.2       1 CYV         0.6100 
      3 O44       -12.8139    3.1877   74.6036 O.3       1 CYV        -0.3300 
      4 C46       -12.6519    1.7701   74.7498 C.3       1 CYV         0.3000 
      5 C49       -11.9945    1.4086   76.0995 C.3       1 CYV        -0.2300 
      6 C48       -11.8757    1.1686   73.5585 C.3       1 CYV        -0.2300 
      7 C47       -14.0900    1.2239   74.7351 C.3       1 CYV        -0.2300 
      8 N41       -12.3168    5.3447   74.5360 N.am      1 CYV        -0.3900 
      9 C39       -11.5383    6.5788   74.5061 C.3       1 CYV         0.0300 
     10 C40       -10.3418    6.4190   75.4722 C.3       1 CYV         0.1100 
     11 O45        -9.5307    7.5780   75.5552 O.3       1 CYV        -0.6800 
     12 C37       -11.0614    6.8911   73.0751 C.2       1 CYV         0.5000 
     13 O38       -10.5589    6.0130   72.3744 O.2       1 CYV        -0.5100 
     14 N36       -11.2229    8.1522   72.6469 N.am      1 CYV        -0.4400 
     15 C32       -10.8269    8.6461   71.3283 C.3       1 CYV         0.0300 
     16 C33       -11.0418    7.5140   70.2794 C.3       1 CYV        -0.0900 
     17 C35       -12.3075    6.6787   70.5621 C.3       1 CYV        -0.1700 
     18 C34       -11.1211    8.0676   68.8419 C.3       1 CYV        -0.1700 
     19 C30       -11.6912    9.8882   71.0024 C.2       1 CYV         0.3800 
     20 O31       -12.7263   10.1690   71.6057 O.2       1 CYV        -0.4200 
     21 C29       -11.1839   10.8428   69.9191 C.3       1 CYV        -0.1900 
     22 C22       -12.0046   12.1461   69.8009 C.3       1 CYV        -0.0900 
     23 C23       -12.4156   12.6978   71.1858 C.3       1 CYV        -0.0900 
     24 C24       -13.1523   14.0275   71.1102 C.2       1 CYV        -0.1700 
     25 C25       -13.9981   14.5479   72.0215 C.2       1 CYV        -0.1100 
     26 C26       -14.6455   15.9019   71.8068 C.3       1 CYV        -0.1400 
     27 C27       -14.3918   13.8678   73.3216 C.3       1 CYV        -0.1400 
     28 C21       -11.2139   13.1696   68.9743 C.2       1 CYV         0.4900 
     29 O28       -10.4791   13.9795   69.5390 O.2       1 CYV        -0.5100 
     30 N20       -11.3779   13.1269   67.6431 N.am      1 CYV        -0.5700 
     31 C12       -10.6632   13.9561   66.6748 C.3       1 CYV         0.1500 
     32 C5        -11.0319   15.4345   66.9061 C.3       1 CYV        -0.1400 
     33 C6        -10.2650   16.4091   65.9954 C.3       1 CYV        -0.2100 
     34 C7        -10.6247   17.8652   66.2801 C.2       1 CYV         0.5000 
     35 O11       -10.3263   18.2384   67.5352 O.3       1 CYV        -0.3100 
     36 C9        -10.5597   19.5761   67.9418 C.3       1 CYV         0.1500 
     37 C10        -9.4462   20.4715   67.3929 C.3       1 CYV        -0.2200 
     38 O8        -11.1296   18.5813   65.4156 O.2       1 CYV        -0.4400 
     39 C19       -10.9689   13.4777   65.2370 C.3       1 CYV        -0.1200 
     40 C13       -11.1958   11.9739   65.1121 C.3       1 CYV        -0.1200 
     41 C14        -9.8686   11.2006   65.1071 C.3       1 CYV        -0.1500 
     42 C15        -9.6640   10.7168   63.6620 C.3       1 CYV         0.1100 
     43 N16       -10.9321   10.9741   63.0048 N.am      1 CYV        -0.6100 
     44 C17       -11.7887   11.6608   63.7510 C.2       1 CYV         0.4900 
     45 O18       -12.9075   12.0026   63.4048 O.2       1 CYV        -0.4900 
     46 H491      -12.5270    1.8647   76.9337 H         1 CYV         0.0700 
     47 H492      -11.9971    0.3302   76.2598 H         1 CYV         0.0700 
     48 H493      -10.9563    1.7343   76.1556 H         1 CYV         0.0700 
     49 H481      -12.3297    1.4508   72.6082 H         1 CYV         0.0700 
     50 H482      -10.8360    1.4940   73.5370 H         1 CYV         0.0700 
     51 H483      -11.8661    0.0795   73.6082 H         1 CYV         0.0700 
     52 H471      -14.6013    1.4765   73.8055 H         1 CYV         0.0700 
     53 H472      -14.1035    0.1379   74.8333 H         1 CYV         0.0700 
     54 H473      -14.6793    1.6339   75.5556 H         1 CYV         0.0700 
     55 HN41      -13.3102    5.4155   74.6972 H         1 CYV         0.2800 
     56 H39       -12.1737    7.3941   74.8571 H         1 CYV         0.0800 
     57 H401      -10.7054    6.1872   76.4742 H         1 CYV         0.0700 
     58 H402       -9.7200    5.5765   75.1672 H         1 CYV         0.0700 
     59 HO45       -9.9440    8.1979   76.1375 H         1 CYV         0.4200 
     60 HN36      -11.6558    8.8177   73.2696 H         1 CYV         0.3000 
     61 H32        -9.7700    8.9152   71.3335 H         1 CYV         0.1000 
     62 H33       -10.1870    6.8359   70.3107 H         1 CYV         0.0600 
     63 H351      -13.1999    7.3054   70.5684 H         1 CYV         0.0600 
     64 H352      -12.4493    5.9117   69.8002 H         1 CYV         0.0600 
     65 H353      -12.2571    6.1626   71.5206 H         1 CYV         0.0600 
     66 H341      -11.9293    8.7930   68.7424 H         1 CYV         0.0600 
     67 H342      -10.1965    8.5589   68.5384 H         1 CYV         0.0600 
     68 H343      -11.3039    7.2689   68.1224 H         1 CYV         0.0600 
     69 H291      -11.1911   10.3048   68.9713 H         1 CYV         0.0900 
     70 H292      -10.1385   11.0801   70.1186 H         1 CYV         0.0900 
     71 H22       -12.9253   11.9391   69.2540 H         1 CYV         0.1100 
     72 H231      -13.0134   11.9619   71.7209 H         1 CYV         0.0800 
     73 H232      -11.5300   12.8473   71.8049 H         1 CYV         0.0800 
     74 H24       -12.9596   14.5924   70.2088 H         1 CYV         0.1200 
     75 H261      -14.3769   16.5816   72.6158 H         1 CYV         0.0600 
     76 H262      -14.3310   16.3549   70.8659 H         1 CYV         0.0600 
     77 H263      -15.7311   15.8035   71.7874 H         1 CYV         0.0600 
     78 H271      -14.0126   14.4358   74.1713 H         1 CYV         0.0600 
     79 H272      -15.4780   13.8226   73.4031 H         1 CYV         0.0600 
     80 H273      -14.0212   12.8488   73.4034 H         1 CYV         0.0600 
     81 HN20      -12.0376   12.4599   67.2707 H         1 CYV         0.2900 
     82 H12        -9.5899   13.8448   66.8398 H         1 CYV         0.1200 
     83 H51       -10.8254   15.6882   67.9475 H         1 CYV         0.0900 
     84 H52       -12.1059   15.5715   66.7703 H         1 CYV         0.0900 
     85 H61       -10.4790   16.2003   64.9474 H         1 CYV         0.0900 
     86 H62        -9.1907   16.2836   66.1320 H         1 CYV         0.0900 
     87 H91       -10.5836   19.6347   69.0310 H         1 CYV         0.0400 
     88 H92       -11.5296   19.9113   67.5719 H         1 CYV         0.0400 
     89 H101       -9.6002   21.5085   67.6911 H         1 CYV         0.0700 
     90 H102       -9.4168   20.4375   66.3036 H         1 CYV         0.0700 
     91 H103       -8.4710   20.1573   67.7659 H         1 CYV         0.0700 
     92 H191      -11.8548   13.9979   64.8693 H         1 CYV         0.0700 
     93 H192      -10.1541   13.7709   64.5741 H         1 CYV         0.0700 
     94 H13       -11.8580   11.6513   65.9155 H         1 CYV         0.1000 
     95 H141       -9.0372   11.8207   65.4422 H         1 CYV         0.0800 
     96 H142       -9.9309   10.3480   65.7833 H         1 CYV         0.0800 
     97 H151       -9.4053    9.6588   63.6198 H         1 CYV         0.0700 
     98 H152       -8.8738   11.2796   63.1650 H         1 CYV         0.0700 
     99 HN16      -11.1281   10.6664   62.0630 H         1 CYV         0.3100 
@<TRIPOS>BOND
     1    1    2 2    
     2    2    3 1    
     3    2    8 am   BACKBONE|DICT|INTERRES
     4    3    4 1    
     5    4    5 1    
     6    4    6 1    
     7    4    7 1    
     8    5   46 1    
     9    5   47 1    
    10    5   48 1    
    11    6   49 1    
    12    6   50 1    
    13    6   51 1    
    14    7   52 1    
    15    7   53 1    
    16    7   54 1    
    17    8    9 1    
    18    8   55 1    
    19    9   10 1    
    20    9   12 1    
    21    9   56 1    
    22   10   11 1    
    23   10   57 1    
    24   10   58 1    
    25   11   59 1    
    26   12   13 2    
    27   12   14 am   BACKBONE|DICT|INTERRES
    28   14   15 1    
    29   14   60 1    
    30   15   16 1    
    31   15   19 1    
    32   15   61 1    
    33   16   17 1    
    34   16   18 1    
    35   16   62 1    
    36   17   63 1    
    37   17   64 1    
    38   17   65 1    
    39   18   66 1    
    40   18   67 1    
    41   18   68 1    
    42   19   20 2    
    43   19   21 1    
    44   21   22 1    
    45   21   69 1    
    46   21   70 1    
    47   22   23 1    
    48   22   28 1    
    49   22   71 1    
    50   23   24 1    
    51   23   72 1    
    52   23   73 1    
    53   24   25 2    
    54   24   74 1    
    55   25   26 1    
    56   25   27 1    
    57   26   75 1    
    58   26   76 1    
    59   26   77 1    
    60   27   78 1    
    61   27   79 1    
    62   27   80 1    
    63   28   29 2    
    64   28   30 am   BACKBONE|DICT|INTERRES
    65   30   31 1    
    66   30   81 1    
    67   31   32 1    
    68   31   39 1    
    69   31   82 1    
    70   32   33 1    
    71   32   83 1    
    72   32   84 1    
    73   33   34 1    
    74   33   85 1    
    75   33   86 1    
    76   34   35 1    
    77   34   38 2    
    78   35   36 1    
    79   36   37 1    
    80   36   87 1    
    81   36   88 1    
    82   37   89 1    
    83   37   90 1    
    84   37   91 1    
    85   39   40 1    
    86   39   92 1    
    87   39   93 1    
    88   40   41 1    
    89   40   44 1    
    90   40   94 1    
    91   41   42 1    
    92   41   95 1    
    93   41   96 1    
    94   42   43 1    
    95   42   97 1    
    96   42   98 1    
    97   43   44 am   BACKBONE|DICT|INTERRES
    98   43   99 1    
    99   44   45 2    
@<TRIPOS>SUBSTRUCTURE
     1 CYV         1 GROUP             0 A     ****    0 ROOT    
