@<TRIPOS>MOLECULE
5REH - hbond-opt_ligand
39   40    1
SMALL
USER_CHARGES


@<TRIPOS>ATOM
      1 N1        -12.7065   13.1271   64.5340 N.ar      1 AWP        -0.2600 
      2 N3        -11.6043   13.1900   70.5228 N.am      1 AWP        -0.3300 
      3 C4        -11.3698   12.9947   66.5563 C.ar      1 AWP        -0.1700 
      4 C5        -10.7478   11.8183   66.0915 C.ar      1 AWP        -0.0400 
      5 C6         -9.7000   11.1109   66.9286 C.3       1 AWP        -0.1100 
      6 C7        -10.2473   10.6886   68.3023 C.3       1 AWP        -0.0200 
      7 C8        -11.6752   12.3134   69.5122 C.2       1 AWP         0.5000 
      8 C10       -13.4767   13.4322   72.0708 C.3       1 AWP        -0.1400 
      9 C13       -13.1825   16.3789   71.8750 C.3       1 AWP        -0.1200 
     10 C1        -11.1264   11.3090   64.8333 C.ar      1 AWP        -0.1700 
     11 C2        -12.1077   11.9996   64.0956 C.ar      1 AWP        -0.0100 
     12 C3        -12.3400   13.6090   65.7402 C.ar      1 AWP        -0.0100 
     13 N2        -10.4698   11.8376   69.1736 N.am      1 AWP        -0.3500 
     14 O1        -12.7232   11.9793   68.9615 O.2       1 AWP        -0.5600 
     15 C9        -12.6741   14.0786   70.9296 C.3       1 AWP         0.0000 
     16 C11       -14.5736   14.3784   72.5866 C.3       1 AWP        -0.1200 
     17 C12       -13.9851   15.7324   73.0162 C.3       1 AWP        -0.1300 
     18 C14       -12.0856   15.4327   71.3592 C.3       1 AWP        -0.1400 
     19 HN3       -10.7451   13.2464   71.0478 H         1 AWP         0.2300 
     20 H4        -11.1135   13.4201   67.5154 H         1 AWP         0.1400 
     21 H61        -9.3437   10.2393   66.3775 H         1 AWP         0.0800 
     22 H62        -8.8387   11.7684   67.0530 H         1 AWP         0.0800 
     23 H71       -11.1967   10.1669   68.1788 H         1 AWP         0.0800 
     24 H72        -9.5662    9.9840   68.7833 H         1 AWP         0.0800 
     25 H101      -13.9219   12.4977   71.7294 H         1 AWP         0.0600 
     26 H102      -12.8049   13.1704   72.8882 H         1 AWP         0.0600 
     27 H131      -13.8510   16.6531   71.0590 H         1 AWP         0.0600 
     28 H132      -12.7305   17.3069   72.2252 H         1 AWP         0.0600 
     29 H1        -10.6779   10.4082   64.4398 H         1 AWP         0.1400 
     30 H2        -12.4207   11.6358   63.1281 H         1 AWP         0.1500 
     31 H3        -12.8357   14.5115   66.0661 H         1 AWP         0.1500 
     32 HN2        -9.6506   12.3023   69.5349 H         1 AWP         0.2400 
     33 H9        -13.3113   14.2107   70.0551 H         1 AWP         0.1000 
     34 H111      -15.3191   14.5341   71.8068 H         1 AWP         0.0600 
     35 H112      -15.0981   13.9183   73.4240 H         1 AWP         0.0600 
     36 H121      -14.7847   16.4015   73.3340 H         1 AWP         0.0600 
     37 H122      -13.3402   15.5926   73.8838 H         1 AWP         0.0600 
     38 H141      -11.3400   15.2770   72.1389 H         1 AWP         0.0600 
     39 H142      -11.5610   15.8928   70.5218 H         1 AWP         0.0600 
@<TRIPOS>BOND
     1    1   11 ar   
     2    1   12 ar   
     3    2    7 am   BACKBONE|DICT|INTERRES
     4    2   15 1    
     5    2   19 1    
     6    3    4 ar   
     7    3   12 ar   
     8    3   20 1    
     9    4    5 1    
    10    4   10 ar   
    11    5    6 1    
    12    5   21 1    
    13    5   22 1    
    14    6   13 1    
    15    6   23 1    
    16    6   24 1    
    17    7   13 am   BACKBONE|DICT|INTERRES
    18    7   14 2    
    19    8   15 1    
    20    8   16 1    
    21    8   25 1    
    22    8   26 1    
    23    9   17 1    
    24    9   18 1    
    25    9   27 1    
    26    9   28 1    
    27   10   11 ar   
    28   10   29 1    
    29   11   30 1    
    30   12   31 1    
    31   13   32 1    
    32   15   18 1    
    33   15   33 1    
    34   16   17 1    
    35   16   34 1    
    36   16   35 1    
    37   17   36 1    
    38   17   37 1    
    39   18   38 1    
    40   18   39 1    
@<TRIPOS>SUBSTRUCTURE
     1 AWP         1 GROUP             0 A     ****    0 ROOT    
