@<TRIPOS>MOLECULE
5RFE - hbond-opt_ligand
33   34    1
SMALL
USER_CHARGES


@<TRIPOS>ATOM
      1 C13        -9.7804   16.3272   67.1733 C.3       1 JGG         0.1100 
      2 C15       -11.0055   16.0325   65.1475 C.3       1 JGG         0.1100 
      3 C17       -13.1298   15.9902   74.1028 C.1       1 JGG         0.3800 
      4 C01       -13.2680   13.0461   71.8026 C.ar      1 JGG        -0.1100 
      5 C02       -13.5194   13.8697   72.8978 C.ar      1 JGG        -0.0900 
      6 C03       -13.0170   15.1718   72.9069 C.ar      1 JGG        -0.1000 
      7 C04       -12.3416   15.6739   71.7965 C.ar      1 JGG        -0.0900 
      8 C05       -12.1116   14.8566   70.6967 C.ar      1 JGG        -0.1100 
      9 C06       -12.5454   13.5249   70.7049 C.ar      1 JGG        -0.0900 
     10 C07       -12.2059   12.5564   69.5672 C.3       1 JGG         0.0100 
     11 N08       -11.2976   13.0836   68.5474 N.am      1 JGG        -0.3400 
     12 C09       -11.6009   13.3735   67.2661 C.2       1 JGG         0.5000 
     13 O10       -12.6118   12.9304   66.7109 O.2       1 JGG        -0.5600 
     14 N11       -10.6713   14.1185   66.6114 N.am      1 JGG        -0.1500 
     15 C12        -9.5469   14.8082   67.2717 C.3       1 JGG        -0.0900 
     16 O14        -9.9333   16.7075   65.8051 O.3       1 JGG        -0.4400 
     17 C16       -10.8592   14.4926   65.1973 C.3       1 JGG        -0.0900 
     18 N18       -13.2045   16.6409   75.0544 N.1       1 JGG        -0.4200 
     19 H131       -8.9549   16.8732   67.6301 H         1 JGG         0.0500 
     20 H132      -10.6727   16.5962   67.7436 H         1 JGG         0.0500 
     21 H151      -11.0871   16.3769   64.1200 H         1 JGG         0.0500 
     22 H152      -11.9302   16.3162   65.6414 H         1 JGG         0.0500 
     23 H01       -13.6212   12.0241   71.8165 H         1 JGG         0.1400 
     24 H02       -14.0496   13.4694   73.7505 H         1 JGG         0.1400 
     25 H04       -11.9573   16.6843   71.7885 H         1 JGG         0.1400 
     26 H05       -11.5601   15.2598   69.8610 H         1 JGG         0.1400 
     27 H071      -11.7402   11.6687   69.9989 H         1 JGG         0.0800 
     28 H072      -13.1299   12.2098   69.1126 H         1 JGG         0.0800 
     29 HN08      -10.3733   13.3183   68.8748 H         1 JGG         0.2400 
     30 H121       -9.1971   14.4214   68.2312 H         1 JGG         0.0900 
     31 H122       -8.7298   14.5665   66.6054 H         1 JGG         0.0900 
     32 H161       -9.9336   14.1901   64.7123 H         1 JGG         0.0900 
     33 H162      -11.6679   13.9602   64.6966 H         1 JGG         0.0900 
@<TRIPOS>BOND
     1    1   15 1    
     2    1   16 1    
     3    1   19 1    
     4    1   20 1    
     5    2   16 1    
     6    2   17 1    
     7    2   21 1    
     8    2   22 1    
     9    3    6 1    
    10    3   18 3    
    11    4    5 ar   
    12    4    9 ar   
    13    4   23 1    
    14    5    6 ar   
    15    5   24 1    
    16    6    7 ar   
    17    7    8 ar   
    18    7   25 1    
    19    8    9 ar   
    20    8   26 1    
    21    9   10 1    
    22   10   11 1    
    23   10   27 1    
    24   10   28 1    
    25   11   12 am   BACKBONE|DICT|INTERRES
    26   11   29 1    
    27   12   13 2    
    28   12   14 am   BACKBONE|DICT|INTERRES
    29   14   15 1    
    30   14   17 1    
    31   15   30 1    
    32   15   31 1    
    33   17   32 1    
    34   17   33 1    
@<TRIPOS>SUBSTRUCTURE
     1 JGG         1 GROUP             0 A     ****    0 ROOT    
