@<TRIPOS>MOLECULE
5RFI - hbond-opt_ligand
40   41    1
SMALL
USER_CHARGES


@<TRIPOS>ATOM
      1 N1        -11.5129   12.9927   65.3438 N.am      1 T71        -0.3700 
      2 C4        -12.5823   12.9387   71.2310 C.ar      1 T71         0.0200 
      3 C5        -11.8262   11.7479   70.6658 C.3       1 T71        -0.1400 
      4 C6        -12.3726   14.2679   70.7751 C.ar      1 T71        -0.1700 
      5 C7        -13.1064   15.3325   71.3413 C.ar      1 T71        -0.0400 
      6 C8        -11.5153   12.4515   67.7724 C.3       1 T71        -0.0800 
      7 C10       -11.7148   14.4256   65.6124 C.3       1 T71         0.0000 
      8 C13       -11.2925   11.0196   63.8073 C.3       1 T71        -0.1900 
      9 N         -11.8219   13.8708   68.0617 N.pl3     1 T71        -0.1700 
     10 C         -14.8354   16.2358   72.9589 C.3       1 T71        -0.1200 
     11 O          -9.8878   14.0242   69.8096 O.2       1 T71        -0.4900 
     12 C1        -14.0488   15.0884   72.3595 C.ar      1 T71        -0.1000 
     13 C11       -12.4361   14.6459   66.9600 C.3       1 T71        -0.0800 
     14 C12       -11.9040   12.3725   64.1747 C.2       1 T71         0.4600 
     15 C2        -14.2592   13.7718   72.8124 C.ar      1 T71        -0.0700 
     16 C3        -13.5298   12.7067   72.2517 C.ar      1 T71        -0.1400 
     17 C9        -10.8085   12.2680   66.4114 C.3       1 T71         0.0000 
     18 O1        -11.2180   16.1295   69.2718 O.2       1 T71        -0.4900 
     19 O2        -12.7289   12.8654   63.4060 O.2       1 T71        -0.5300 
     20 S         -11.1688   14.6765   69.4960 S.o2      1 T71         0.8500 
     21 H51       -12.2722   10.8089   70.9943 H         1 T71         0.0800 
     22 H52       -11.8402   11.7449   69.5771 H         1 T71         0.0800 
     23 H53       -10.7916   11.7551   71.0063 H         1 T71         0.0800 
     24 H7        -12.9492   16.3434   70.9955 H         1 T71         0.1400 
     25 H81       -12.4538   11.8978   67.7991 H         1 T71         0.0900 
     26 H82       -10.9031   12.0376   68.5737 H         1 T71         0.0900 
     27 H101      -10.7399   14.9127   65.6334 H         1 T71         0.0900 
     28 H102      -12.2743   14.9133   64.8143 H         1 T71         0.0900 
     29 H131      -10.2075   11.0932   63.7307 H         1 T71         0.0800 
     30 H132      -11.6717   10.6774   62.8439 H         1 T71         0.0800 
     31 HXT1      -15.1206   16.0178   73.9886 H         1 T71         0.0700 
     32 HXT2      -14.2452   17.1528   72.9599 H         1 T71         0.0700 
     33 HXT3      -15.7428   16.4118   72.3808 H         1 T71         0.0700 
     34 H111      -13.4828   14.3500   66.8898 H         1 T71         0.0900 
     35 H112      -12.4427   15.7056   67.2152 H         1 T71         0.0900 
     36 H2        -14.9816   13.5732   73.5909 H         1 T71         0.1300 
     37 H3        -13.7044   11.7035   72.6127 H         1 T71         0.1300 
     38 H91       -10.7102   11.2048   66.1925 H         1 T71         0.0900 
     39 H92        -9.7908   12.6533   66.4740 H         1 T71         0.0900 
     40 H13       -11.5471   10.2659   64.5526 H         1 T71         0.0800 
@<TRIPOS>BOND
     1    1    7 1    
     2    1   14 am   BACKBONE|DICT|INTERRES
     3    1   17 1    
     4    2    3 1    
     5    2    4 ar   
     6    2   16 ar   
     7    3   21 1    
     8    3   22 1    
     9    3   23 1    
    10    4    5 ar   
    11    4   20 1    
    12    5   12 ar   
    13    5   24 1    
    14    6    9 1    
    15    6   17 1    
    16    6   25 1    
    17    6   26 1    
    18    7   13 1    
    19    7   27 1    
    20    7   28 1    
    21    8   14 1    
    22    8   29 1    
    23    8   30 1    
    24    8   40 1    
    25    9   13 1    
    26    9   20 1    
    27   10   12 1    
    28   10   31 1    
    29   10   32 1    
    30   10   33 1    
    31   11   20 2    
    32   12   15 ar   
    33   13   34 1    
    34   13   35 1    
    35   14   19 2    
    36   15   16 ar   
    37   15   36 1    
    38   16   37 1    
    39   17   38 1    
    40   17   39 1    
    41   18   20 2    
@<TRIPOS>SUBSTRUCTURE
     1 T71         1 GROUP             0 A     ****    0 ROOT    
