@<TRIPOS>MOLECULE
5RFL - hbond-opt_ligand
37   38    1
SMALL
USER_CHARGES


@<TRIPOS>ATOM
      1 N1        -11.1538   12.8996   64.7890 N.am      1 T7G        -0.3600 
      2 C4        -12.8225   15.6680   71.2970 C.ar      1 T7G        -0.0800 
      3 C5        -12.7301   14.3369   70.8784 C.ar      1 T7G         0.0000 
      4 C6        -11.3812   13.2916   69.0834 C.2       1 T7G         0.4600 
      5 C7        -10.9748   13.4696   67.5979 C.3       1 T7G        -0.0900 
      6 C8        -10.4003   12.1569   66.9897 C.3       1 T7G        -0.1400 
      7 C10       -11.6547   14.1973   65.2744 C.3       1 T7G         0.0200 
      8 C13       -11.3647   10.8402   63.4096 C.3       1 T7G        -0.1900 
      9 N         -12.3117   14.1487   69.5538 N.am      1 T7G        -0.3600 
     10 C         -13.1462   13.3082   71.7487 C.ar      1 T7G         0.2100 
     11 O         -13.1298   11.9822   71.4047 O.3       1 T7G        -0.5400 
     12 C1        -13.6521   13.6361   73.0049 C.ar      1 T7G        -0.2100 
     13 C11       -12.1472   13.9923   66.7186 C.3       1 T7G        -0.1400 
     14 C12       -11.9645   12.0806   64.0744 C.2       1 T7G         0.4600 
     15 C2        -13.7244   14.9642   73.4180 C.ar      1 T7G        -0.0800 
     16 C3        -13.3040   15.9790   72.5662 C.ar      1 T7G        -0.1600 
     17 C9         -9.9744   12.3889   65.5155 C.3       1 T7G         0.0200 
     18 O1        -10.7852   12.4756   69.7860 O.2       1 T7G        -0.5200 
     19 O2        -13.1298   12.3770   63.8045 O.2       1 T7G        -0.5300 
     20 H4        -12.5297   16.4734   70.6387 H         1 T7G         0.1400 
     21 H7        -10.1797   14.2158   67.6474 H         1 T7G         0.1000 
     22 H81       -11.1390   11.3526   66.9794 H         1 T7G         0.0800 
     23 H82        -9.4977   11.8396   67.5147 H         1 T7G         0.0800 
     24 H101      -10.8147   14.8928   65.2524 H         1 T7G         0.0800 
     25 H102      -12.3895   14.6475   64.6047 H         1 T7G         0.0800 
     26 H131      -11.3880    9.9947   64.0945 H         1 T7G         0.0800 
     27 H132      -10.3371   11.0104   63.0900 H         1 T7G         0.0800 
     28 HN        -12.6380   14.8512   68.9089 H         1 T7G         0.2900 
     29 HO        -13.5045   11.4119   72.0784 H         1 T7G         0.4000 
     30 H1        -13.9905   12.8574   73.6709 H         1 T7G         0.1300 
     31 H111      -12.4898   14.9772   67.0382 H         1 T7G         0.0800 
     32 H112      -12.9792   13.2874   66.6658 H         1 T7G         0.0800 
     33 H2        -14.1120   15.2080   74.3958 H         1 T7G         0.1300 
     34 H3        -13.3670   17.0093   72.8813 H         1 T7G         0.1300 
     35 H91        -9.4995   11.5277   65.0446 H         1 T7G         0.0800 
     36 H92        -9.2117   13.1675   65.4660 H         1 T7G         0.0800 
     37 H13       -11.9301   10.5673   62.5215 H         1 T7G         0.0800 
@<TRIPOS>BOND
     1    1    7 1    
     2    1   14 am   BACKBONE|DICT|INTERRES
     3    1   17 1    
     4    2    3 ar   
     5    2   16 ar   
     6    2   20 1    
     7    3    9 1    
     8    3   10 ar   
     9    4    5 1    
    10    4    9 am   BACKBONE|DICT|INTERRES
    11    4   18 2    
    12    5    6 1    
    13    5   13 1    
    14    5   21 1    
    15    6   17 1    
    16    6   22 1    
    17    6   23 1    
    18    7   13 1    
    19    7   24 1    
    20    7   25 1    
    21    8   14 1    
    22    8   26 1    
    23    8   27 1    
    24    8   37 1    
    25    9   28 1    
    26   10   11 1    
    27   10   12 ar   
    28   11   29 1    
    29   12   15 ar   
    30   12   30 1    
    31   13   31 1    
    32   13   32 1    
    33   14   19 2    
    34   15   16 ar   
    35   15   33 1    
    36   16   34 1    
    37   17   35 1    
    38   17   36 1    
@<TRIPOS>SUBSTRUCTURE
     1 T7G         1 GROUP             0 A     ****    0 ROOT    
