@<TRIPOS>MOLECULE
6Y2GB - hbond-opt_ligand
84   87    1
SMALL
USER_CHARGES


@<TRIPOS>ATOM
      1 O26        -7.5914   11.3402   62.9072 O.2       1 O6K        -0.5600 
      2 C24        -8.2171   10.3064   63.1608 C.2       1 O6K         0.5700 
      3 O25        -7.7789    9.0487   62.9174 O.3       1 O6K        -0.3400 
      4 C27        -6.5076    8.7056   62.3495 C.3       1 O6K         0.3000 
      5 C31        -5.3481    9.1469   63.2747 C.3       1 O6K        -0.2300 
      6 C32        -6.3403    9.2935   60.9274 C.3       1 O6K        -0.2300 
      7 C33        -6.5435    7.1688   62.2615 C.3       1 O6K        -0.2300 
      8 N23        -9.4817   10.2208   63.7261 N.am      1 O6K        -0.2000 
      9 C19       -10.2449   11.2698   64.1418 C.ar      1 O6K        -0.3100 
     10 C21        -9.9371   11.9098   65.4359 C.ar      1 O6K         0.6600 
     11 O22        -8.9697   11.5597   66.1202 O.2       1 O6K        -0.5900 
     12 C18       -11.3504   11.5657   63.4180 C.ar      1 O6K         0.0600 
     13 C17       -12.2475   12.5955   63.8903 C.ar      1 O6K        -0.2900 
     14 C16       -11.9381   13.1888   65.0563 C.ar      1 O6K        -0.1300 
     15 N15       -10.8315   12.8979   65.8356 N.pl3     1 O6K        -0.0300 
     16 C20       -10.5985   13.5095   67.1835 C.3       1 O6K        -0.0700 
     17 C22       -10.9493   15.0203   67.3095 C.3       1 O6K        -0.1100 
     18 C29       -10.2540   15.9295   66.2824 C.3       1 O6K        -0.1400 
     19 C34       -10.9636   16.3649   65.0282 C.3       1 O6K        -0.1800 
     20 C30       -10.6766   17.3688   66.1391 C.3       1 O6K        -0.1800 
     21 C36       -11.3750   12.6674   68.2318 C.2       1 O6K         0.5000 
     22 O37       -12.3312   11.9766   67.8903 O.2       1 O6K        -0.5000 
     23 N38       -10.9483   12.6908   69.5074 N.am      1 O6K        -0.5800 
     24 C40       -11.5374   11.9240   70.6272 C.3       1 O6K         0.1400 
     25 C42       -12.8070   12.6278   71.1995 C.3       1 O6K        -0.1200 
     26 C45       -12.5607   13.9354   72.0212 C.3       1 O6K        -0.1100 
     27 C47       -12.7742   15.1885   71.1586 C.2       1 O6K         0.4900 
     28 O48       -12.0101   15.6356   70.3127 O.2       1 O6K        -0.5100 
     29 N49       -13.9301   15.7339   71.5649 N.am      1 O6K        -0.6000 
     30 C51       -14.6370   15.0162   72.6147 C.3       1 O6K         0.1100 
     31 C54       -13.5518   14.1178   73.1724 C.3       1 O6K        -0.1400 
     32 C57       -11.7515   10.3847   70.3450 C.3       1 O6K         0.1400 
     33 O40       -10.6184    9.8535   69.6645 O.3       1 O6K        -0.6600 
     34 C35       -11.9337    9.5690   71.6458 C.2       1 O6K         0.4800 
     35 O41       -11.0504    9.5740   72.5008 O.2       1 O6K        -0.5400 
     36 N36       -13.0994    8.9132   71.8051 N.am      1 O6K        -0.5600 
     37 C13       -13.5302    8.2011   73.0105 C.3       1 O6K         0.1500 
     38 C14       -12.6939    6.9904   73.4189 C.ar      1 O6K        -0.1100 
     39 C28       -13.1802    5.7059   73.1693 C.ar      1 O6K        -0.1100 
     40 C26       -12.4933    4.5863   73.6303 C.ar      1 O6K        -0.1300 
     41 C25       -11.3177    4.7535   74.3579 C.ar      1 O6K        -0.1100 
     42 C23       -10.8319    6.0304   74.6331 C.ar      1 O6K        -0.1300 
     43 C15       -11.5304    7.1449   74.1782 C.ar      1 O6K        -0.1100 
     44 H311       -4.3883    8.7747   62.9175 H         1 O6K         0.0700 
     45 H312       -5.4938    8.7701   64.2883 H         1 O6K         0.0700 
     46 H313       -5.2728   10.2321   63.3433 H         1 O6K         0.0700 
     47 H321       -7.2045    9.0600   60.3036 H         1 O6K         0.0700 
     48 H322       -6.2369   10.3777   60.9463 H         1 O6K         0.0700 
     49 H323       -5.4581    8.8926   60.4305 H         1 O6K         0.0700 
     50 H331       -7.3707    6.8279   61.6371 H         1 O6K         0.0700 
     51 H332       -5.6230    6.7657   61.8407 H         1 O6K         0.0700 
     52 H333       -6.6825    6.7192   63.2461 H         1 O6K         0.0700 
     53 HN23       -9.8274    9.2908   63.9454 H         1 O6K         0.2400 
     54 H18       -11.5840   11.0138   62.5192 H         1 O6K         0.1500 
     55 H17       -13.1303   12.8541   63.3324 H         1 O6K         0.1900 
     56 H16       -12.5723   13.9413   65.5015 H         1 O6K         0.1600 
     57 H20        -9.5425   13.4327   67.4441 H         1 O6K         0.1500 
     58 H221      -12.0302   15.1801   67.2878 H         1 O6K         0.0700 
     59 H222      -10.6189   15.3695   68.2893 H         1 O6K         0.0700 
     60 H29        -9.1882   15.7041   66.2048 H         1 O6K         0.1200 
     61 H341      -10.3760   16.3771   64.1156 H         1 O6K         0.1000 
     62 H342      -11.9925   16.0560   64.8596 H         1 O6K         0.1000 
     63 H301      -11.5059   17.7252   66.7554 H         1 O6K         0.1000 
     64 H302       -9.9152   18.1322   65.9924 H         1 O6K         0.1000 
     65 HN38      -10.1650   13.2805   69.7439 H         1 O6K         0.3100 
     66 H40       -10.7784   11.9720   71.4026 H         1 O6K         0.1100 
     67 H421      -13.5164   12.8125   70.3882 H         1 O6K         0.0800 
     68 H422      -13.3263   11.9187   71.8417 H         1 O6K         0.0800 
     69 H45       -11.5545   13.9773   72.4376 H         1 O6K         0.1100 
     70 HN49      -14.3429   16.5089   71.0608 H         1 O6K         0.3100 
     71 H511      -15.0201   15.7066   73.3681 H         1 O6K         0.0700 
     72 H512      -15.4732   14.4524   72.1993 H         1 O6K         0.0700 
     73 H541      -13.9554   13.1905   73.5803 H         1 O6K         0.0800 
     74 H542      -13.0588   14.6264   74.0034 H         1 O6K         0.0800 
     75 HO40      -10.9154    9.3409   68.9073 H         1 O6K         0.4300 
     76 HN36      -13.7276    8.8616   71.0137 H         1 O6K         0.3100 
     77 H131      -13.5720    8.9090   73.8331 H         1 O6K         0.0800 
     78 H132      -14.5635    7.8903   72.8668 H         1 O6K         0.0800 
     79 H28       -14.1039    5.5798   72.6280 H         1 O6K         0.1300 
     80 H26       -12.8750    3.5961   73.4305 H         1 O6K         0.1300 
     81 H25       -10.7809    3.8873   74.7160 H         1 O6K         0.1300 
     82 H23        -9.9274    6.1575   75.2093 H         1 O6K         0.1300 
     83 H15       -11.1630    8.1295   74.4274 H         1 O6K         0.1300 
     84 H57       -12.6191   10.2450   69.7013 H         1 O6K         0.0800 
@<TRIPOS>BOND
     1    1    2 2    
     2    2    3 1    
     3    2    8 am   BACKBONE|DICT|INTERRES
     4    3    4 1    
     5    4    5 1    
     6    4    6 1    
     7    4    7 1    
     8    5   44 1    
     9    5   45 1    
    10    5   46 1    
    11    6   47 1    
    12    6   48 1    
    13    6   49 1    
    14    7   50 1    
    15    7   51 1    
    16    7   52 1    
    17    8    9 1    
    18    8   53 1    
    19    9   10 ar   
    20    9   12 ar   
    21   10   11 2    
    22   10   15 ar   
    23   12   13 ar   
    24   12   54 1    
    25   13   14 ar   
    26   13   55 1    
    27   14   15 ar   
    28   14   56 1    
    29   15   16 1    
    30   16   17 1    
    31   16   21 1    
    32   16   57 1    
    33   17   18 1    
    34   17   58 1    
    35   17   59 1    
    36   18   19 1    
    37   18   20 1    
    38   18   60 1    
    39   19   20 1    
    40   19   61 1    
    41   19   62 1    
    42   20   63 1    
    43   20   64 1    
    44   21   22 2    
    45   21   23 am   BACKBONE|DICT|INTERRES
    46   23   24 1    
    47   23   65 1    
    48   24   25 1    
    49   24   32 1    
    50   24   66 1    
    51   25   26 1    
    52   25   67 1    
    53   25   68 1    
    54   26   27 1    
    55   26   31 1    
    56   26   69 1    
    57   27   28 2    
    58   27   29 am   BACKBONE|DICT|INTERRES
    59   29   30 1    
    60   29   70 1    
    61   30   31 1    
    62   30   71 1    
    63   30   72 1    
    64   31   73 1    
    65   31   74 1    
    66   32   33 1    
    67   32   34 1    
    68   32   84 1    
    69   33   75 1    
    70   34   35 2    
    71   34   36 am   BACKBONE|DICT|INTERRES
    72   36   37 1    
    73   36   76 1    
    74   37   38 1    
    75   37   77 1    
    76   37   78 1    
    77   38   39 ar   
    78   38   43 ar   
    79   39   40 ar   
    80   39   79 1    
    81   40   41 ar   
    82   40   80 1    
    83   41   42 ar   
    84   41   81 1    
    85   42   43 ar   
    86   42   82 1    
    87   43   83 1    
@<TRIPOS>SUBSTRUCTURE
     1 O6K         1 GROUP             0 B     ****    0 ROOT    
