@<TRIPOS>MOLECULE
1WOFA_min_ligand
90   91    1
SMALL
USER_CHARGES


@<TRIPOS>ATOM
      1 N1        -12.8182    4.2213   74.4532 N.2       1 I12        -0.0615 
      2 C1        -12.1018    4.5637   73.3991 C.2       1 I12         0.1448 
      3 C2        -11.1012    3.6111   73.1672 C.2       1 I12        -0.4207 
      4 C3        -11.2420    2.6667   74.1578 C.2       1 I12         0.2436 
      5 C4        -10.5242    1.3901   74.5161 C.3       1 I12        -0.1941 
      6 O1        -12.2749    3.0362   74.9518 O.3       1 I12        -0.2180 
      7 C5        -12.3467    5.7161   72.5599 C.2       1 I12         0.4925 
      8 O2        -11.8278    5.8141   71.4457 O.2       1 I12        -0.5017 
      9 N2        -13.1869    6.6376   73.0775 N.am      1 I12        -0.4405 
     10 C6        -13.5828    7.8895   72.4220 C.3       1 I12         0.0260 
     11 C7        -12.3982    8.8557   72.2131 C.2       1 I12         0.4975 
     12 O3        -11.5633    9.0041   73.1073 O.2       1 I12        -0.5339 
     13 C8        -14.6776    8.5583   73.2683 C.3       1 I12        -0.1980 
     14 N3        -12.3653    9.5069   71.0393 N.am      1 I12        -0.4168 
     15 C9        -11.3621   10.5027   70.6679 C.3       1 I12         0.0277 
     16 C10       -10.3726    9.9618   69.5911 C.3       1 I12        -0.1046 
     17 C11        -9.4193   11.0340   69.0147 C.3       1 I12        -0.1717 
     18 C12        -9.5417    8.7862   70.1356 C.3       1 I12        -0.1717 
     19 C13       -12.0855   11.7362   70.1090 C.2       1 I12         0.4999 
     20 O4        -12.6747   11.6484   69.0315 O.2       1 I12        -0.5326 
     21 N4        -11.9902   12.8657   70.8328 N.am      1 I12        -0.4394 
     22 C14       -12.4365   14.1880   70.3879 C.3       1 I12         0.0292 
     23 C15       -12.3872   15.1903   71.5703 C.3       1 I12        -0.1470 
     24 C16       -13.3450   14.8964   72.7531 C.3       1 I12        -0.0857 
     25 C17       -14.8317   15.0109   72.3574 C.3       1 I12        -0.1703 
     26 C18       -13.0069   15.7814   73.9742 C.3       1 I12        -0.1703 
     27 C19       -11.5342   14.6476   69.2283 C.2       1 I12         0.4999 
     28 O5        -10.3616   14.9468   69.4578 O.2       1 I12        -0.5269 
     29 N5        -12.0833   14.6409   68.0010 N.am      1 I12        -0.5624 
     30 C20       -11.3562   14.9046   66.7515 C.3       1 I12         0.1627 
     31 C21       -11.0580   16.3713   66.4464 C.2       1 I12        -0.1011 
     32 C22       -11.0848   17.4067   67.3107 C.2       1 I12        -0.1805 
     33 C23       -10.7279   18.7491   66.8962 C.2       1 I12         0.4522 
     34 O6        -10.9157   19.1783   65.7556 O.2       1 I12        -0.4608 
     35 O7        -10.1649   19.4408   67.9099 O.3       1 I12        -0.3118 
     36 C24        -9.4953   20.6762   67.6872 C.3       1 I12         0.1548 
     37 C25        -7.9778   20.4680   67.7645 C.3       1 I12        -0.2221 
     38 C26       -12.0075   14.1595   65.5565 C.3       1 I12        -0.1287 
     39 C27       -11.5755   12.6729   65.4173 C.3       1 I12        -0.1190 
     40 C28       -10.0817   12.4756   65.1732 C.3       1 I12        -0.1514 
     41 C29        -9.9903   11.3325   64.1846 C.3       1 I12         0.1107 
     42 N6        -11.2904   11.3561   63.5377 N.am      1 I12        -0.6009 
     43 C30       -12.2501   12.0224   64.1993 C.2       1 I12         0.4948 
     44 O8        -13.4415   12.0662   63.9160 O.2       1 I12        -0.5138 
     45 H2        -10.3714    3.6106   72.3704 H         1 I12         0.2233 
     46 H41       -11.2224    0.5688   74.6778 H         1 I12         0.0925 
     47 H42        -9.8374    1.0795   73.7288 H         1 I12         0.0925 
     48 H43        -9.9396    1.5030   75.4292 H         1 I12         0.0925 
     49 HN2       -13.5418    6.5043   74.0143 H         1 I12         0.3230 
     50 H6        -14.0102    7.6220   71.4547 H         1 I12         0.0776 
     51 H81       -14.9483    9.5344   72.8651 H         1 I12         0.0824 
     52 H82       -15.5838    7.9557   73.2823 H         1 I12         0.0824 
     53 H83       -14.3574    8.7062   74.2997 H         1 I12         0.0824 
     54 HN3       -13.0815    9.3231   70.3471 H         1 I12         0.3058 
     55 H9        -10.7806   10.8071   71.5384 H         1 I12         0.0809 
     56 H10       -10.9543    9.5702   68.7541 H         1 I12         0.0863 
     57 H111       -8.6927   10.5889   68.3346 H         1 I12         0.0675 
     58 H112       -9.9469   11.7985   68.4445 H         1 I12         0.0675 
     59 H113       -8.8651   11.5350   69.8095 H         1 I12         0.0675 
     60 H121       -8.8395    8.4184   69.3869 H         1 I12         0.0675 
     61 H122       -8.9671    9.0821   71.0142 H         1 I12         0.0675 
     62 H123      -10.1737    7.9444   70.4189 H         1 I12         0.0675 
     63 HN4       -11.4487   12.8552   71.6863 H         1 I12         0.3185 
     64 H14       -13.4595   14.1114   70.0233 H         1 I12         0.0772 
     65 H151      -12.5891   16.1973   71.2004 H         1 I12         0.0904 
     66 H152      -11.3654   15.2159   71.9517 H         1 I12         0.0904 
     67 H16       -13.1798   13.8642   73.0649 H         1 I12         0.0663 
     68 H171      -15.3882   15.7089   72.9800 H         1 I12         0.0623 
     69 H172      -14.9523   15.3599   71.3341 H         1 I12         0.0623 
     70 H173      -15.3284   14.0447   72.4419 H         1 I12         0.0623 
     71 H181      -13.8609   16.3401   74.3569 H         1 I12         0.0623 
     72 H182      -12.6352   15.1747   74.7998 H         1 I12         0.0623 
     73 H183      -12.2360   16.5144   73.7418 H         1 I12         0.0623 
     74 HN5       -13.0688   14.4379   67.9132 H         1 I12         0.3033 
     75 H20       -10.3565   14.4796   66.8602 H         1 I12         0.1126 
     76 H22       -11.3462   17.2741   68.3500 H         1 I12         0.1590 
     77 H241       -9.8202   21.3898   68.4428 H         1 I12         0.0463 
     78 H242       -9.7432   21.1081   66.7207 H         1 I12         0.0463 
     79 H251       -7.4511   21.4118   67.6256 H         1 I12         0.0751 
     80 H252       -7.6826   20.0605   68.7313 H         1 I12         0.0751 
     81 H253       -7.6359   19.7798   66.9910 H         1 I12         0.0751 
     82 H261      -11.7457   14.6704   64.6287 H         1 I12         0.0911 
     83 H262      -13.0950   14.2388   65.6240 H         1 I12         0.0911 
     84 H27       -11.8906   12.1132   66.2998 H         1 I12         0.1080 
     85 H281       -9.5153   12.2788   66.0838 H         1 I12         0.0881 
     86 H282       -9.6501   13.3707   64.7223 H         1 I12         0.0881 
     87 H291       -9.8217   10.3747   64.6770 H         1 I12         0.0782 
     88 H292       -9.1885   11.4886   63.4621 H         1 I12         0.0782 
     89 HN6       -11.4886   10.7772   62.7336 H         1 I12         0.3174 
     90 H21       -10.7714   16.5601   65.4206 H         1 I12         0.1452 
@<TRIPOS>BOND
     1    1    2 2    
     2    1    6 1    
     3    2    3 1    
     4    2    7 1    
     5    3    4 2    
     6    3   45 1    
     7    4    5 1    
     8    4    6 1    
     9    5   46 1    
    10    5   47 1    
    11    5   48 1    
    12    7    8 2    
    13    7    9 am   BACKBONE|DICT|INTERRES
    14    9   10 1    
    15    9   49 1    
    16   10   11 1    
    17   10   13 1    
    18   10   50 1    
    19   11   12 2    
    20   11   14 am   BACKBONE|DICT|INTERRES
    21   13   51 1    
    22   13   52 1    
    23   13   53 1    
    24   14   15 1    
    25   14   54 1    
    26   15   16 1    
    27   15   19 1    
    28   15   55 1    
    29   16   17 1    
    30   16   18 1    
    31   16   56 1    
    32   17   57 1    
    33   17   58 1    
    34   17   59 1    
    35   18   60 1    
    36   18   61 1    
    37   18   62 1    
    38   19   20 2    
    39   19   21 am   BACKBONE|DICT|INTERRES
    40   21   22 1    
    41   21   63 1    
    42   22   23 1    
    43   22   27 1    
    44   22   64 1    
    45   23   24 1    
    46   23   65 1    
    47   23   66 1    
    48   24   25 1    
    49   24   26 1    
    50   24   67 1    
    51   25   68 1    
    52   25   69 1    
    53   25   70 1    
    54   26   71 1    
    55   26   72 1    
    56   26   73 1    
    57   27   28 2    
    58   27   29 am   BACKBONE|DICT|INTERRES
    59   29   30 1    
    60   29   74 1    
    61   30   31 1    
    62   30   38 1    
    63   30   75 1    
    64   31   32 2    
    65   31   90 1    
    66   32   33 1    
    67   32   76 1    
    68   33   34 2    
    69   33   35 1    
    70   35   36 1    
    71   36   37 1    
    72   36   77 1    
    73   36   78 1    
    74   37   79 1    
    75   37   80 1    
    76   37   81 1    
    77   38   39 1    
    78   38   82 1    
    79   38   83 1    
    80   39   40 1    
    81   39   43 1    
    82   39   84 1    
    83   40   41 1    
    84   40   85 1    
    85   40   86 1    
    86   41   42 1    
    87   41   87 1    
    88   41   88 1    
    89   42   43 am   BACKBONE|DICT|INTERRES
    90   42   89 1    
    91   43   44 2    
@<TRIPOS>SUBSTRUCTURE
     1 I12         1 GROUP             0 A     ****    0 ROOT    
