@<TRIPOS>MOLECULE
2D2DB_min_ligand
82   83    1
SMALL
USER_CHARGES


@<TRIPOS>ATOM
      1 C1        -11.4791   14.8404   65.5842 C.3       1 ENB         0.1637 
      2 C2        -11.2424   16.3077   65.3269 C.2       1 ENB        -0.1008 
      3 N1        -12.0702   14.5109   66.8761 N.am      1 ENB        -0.5608 
      4 C3        -11.3976   13.9214   67.8730 C.2       1 ENB         0.5031 
      5 C4        -12.2640   13.4027   69.0302 C.3       1 ENB         0.0206 
      6 O1        -10.1719   13.7890   67.8998 O.2       1 ENB        -0.5240 
      7 N2        -11.7263   12.1066   69.4554 N.am      1 ENB        -0.4386 
      8 C5        -12.4358   14.3263   70.2211 C.ar      1 ENB        -0.0524 
      9 C6        -13.1258   13.8417   71.3388 C.ar      1 ENB        -0.0984 
     10 C7        -13.4477   14.6712   72.3985 C.ar      1 ENB        -0.1306 
     11 C8        -13.0620   15.9977   72.3471 C.ar      1 ENB        -0.1192 
     12 C9        -12.3032   16.4908   71.2897 C.ar      1 ENB        -0.1306 
     13 C10       -12.0010   15.6607   70.2192 C.ar      1 ENB        -0.0984 
     14 C11       -12.4489   10.9892   69.6013 C.2       1 ENB         0.4985 
     15 C12       -11.6939    9.7444   70.1132 C.3       1 ENB         0.0385 
     16 O2        -13.6622   10.9488   69.4014 O.2       1 ENB        -0.5248 
     17 N3        -12.6755    8.8436   70.7231 N.am      1 ENB        -0.3709 
     18 C13       -12.4420    8.2439   71.9400 C.2       1 ENB         0.6102 
     19 O3        -13.4435    7.3844   72.1681 O.3       1 ENB        -0.3395 
     20 O4        -11.4549    8.3938   72.6591 O.2       1 ENB        -0.5726 
     21 C14       -13.2484    6.0406   72.6209 C.3       1 ENB         0.3053 
     22 C15       -12.2135   14.1176   64.4553 C.3       1 ENB        -0.1291 
     23 C16       -12.0024   12.5839   64.5078 C.3       1 ENB        -0.1188 
     24 C17       -10.5534   12.1300   64.3724 C.3       1 ENB        -0.1513 
     25 C18       -10.5893   10.9262   63.4560 C.3       1 ENB         0.1108 
     26 N4        -11.8639   11.0637   62.7799 N.am      1 ENB        -0.6014 
     27 C19       -12.7275   11.9152   63.3450 C.2       1 ENB         0.4947 
     28 O5        -13.8950   12.0800   63.0456 O.2       1 ENB        -0.5134 
     29 C20       -10.9194    9.0264   68.9493 C.3       1 ENB        -0.1056 
     30 C21       -10.0870    7.8371   69.4671 C.3       1 ENB        -0.1713 
     31 C22       -10.0284    9.9236   68.0608 C.3       1 ENB        -0.1713 
     32 C23       -12.5109    5.9735   73.9792 C.3       1 ENB        -0.2325 
     33 C24       -14.6824    5.5109   72.7557 C.3       1 ENB        -0.2325 
     34 C25       -12.4659    5.2286   71.5627 C.3       1 ENB        -0.2325 
     35 C26       -10.9938   17.2342   66.2676 C.2       1 ENB        -0.1793 
     36 C27       -10.5620   18.5434   65.8657 C.2       1 ENB         0.4527 
     37 O6         -9.4902   18.9075   66.5782 O.3       1 ENB        -0.3114 
     38 O7        -11.0431   19.1635   64.9158 O.2       1 ENB        -0.4618 
     39 C28        -8.4119   19.5650   65.9354 C.3       1 ENB         0.1550 
     40 C29        -7.5969   20.3456   66.9624 C.3       1 ENB        -0.2221 
     41 H1        -10.4540   14.4697   65.5399 H         1 ENB         0.1132 
     42 HN1       -13.0690   14.6403   66.9668 H         1 ENB         0.3018 
     43 H4        -13.2600   13.2590   68.6051 H         1 ENB         0.0787 
     44 HN2       -10.7472   12.1014   69.7078 H         1 ENB         0.3168 
     45 H6        -13.4634   12.8206   71.3739 H         1 ENB         0.1344 
     46 H7        -14.0153   14.2977   73.2387 H         1 ENB         0.1336 
     47 H8        -13.3561   16.6358   73.1580 H         1 ENB         0.1294 
     48 H9        -11.9740   17.5186   71.2886 H         1 ENB         0.1336 
     49 H10       -11.4529   16.0798   69.3898 H         1 ENB         0.1344 
     50 H12       -10.9720   10.0888   70.8567 H         1 ENB         0.0766 
     51 HN3       -13.4650    8.5459   70.1652 H         1 ENB         0.2701 
     52 H151      -11.8514   14.4955   63.5053 H         1 ENB         0.0911 
     53 H152      -13.2655   14.3904   64.4823 H         1 ENB         0.0911 
     54 H16       -12.4282   12.1927   65.4318 H         1 ENB         0.1081 
     55 H171      -10.0858   11.9042   65.3316 H         1 ENB         0.0882 
     56 H172       -9.9536   12.9065   63.9022 H         1 ENB         0.0882 
     57 H181      -10.5495    9.9875   64.0079 H         1 ENB         0.0780 
     58 H182       -9.7626   10.9345   62.7437 H         1 ENB         0.0780 
     59 HN4       -12.1344   10.4428   62.0300 H         1 ENB         0.3172 
     60 H20       -11.6471    8.5763   68.2777 H         1 ENB         0.0868 
     61 H211       -9.5295    7.3595   68.6612 H         1 ENB         0.0665 
     62 H212       -9.3684    8.1565   70.2223 H         1 ENB         0.0665 
     63 H213      -10.7163    7.0675   69.9104 H         1 ENB         0.0665 
     64 H221       -9.4675    9.3303   67.3387 H         1 ENB         0.0665 
     65 H222      -10.6126   10.6370   67.4805 H         1 ENB         0.0665 
     66 H223       -9.3098   10.4844   68.6582 H         1 ENB         0.0665 
     67 H231      -12.6554    5.0146   74.4740 H         1 ENB         0.0749 
     68 H232      -11.4349    6.1097   73.8679 H         1 ENB         0.0749 
     69 H233      -12.8496    6.7610   74.6460 H         1 ENB         0.0749 
     70 H241      -14.7044    4.4367   72.9396 H         1 ENB         0.0749 
     71 H242      -15.1900    6.0126   73.5712 H         1 ENB         0.0749 
     72 H243      -15.2852    5.7151   71.8716 H         1 ENB         0.0749 
     73 H251      -12.5170    4.1588   71.7644 H         1 ENB         0.0749 
     74 H252      -12.8455    5.4025   70.5558 H         1 ENB         0.0749 
     75 H253      -11.4112    5.5031   71.5469 H         1 ENB         0.0749 
     76 H26       -11.0244   17.0151   67.3245 H         1 ENB         0.1595 
     77 H281       -8.7570   20.2141   65.1367 H         1 ENB         0.0460 
     78 H282       -7.7796   18.8120   65.4633 H         1 ENB         0.0460 
     79 H291       -6.7458   20.8376   66.4933 H         1 ENB         0.0750 
     80 H292       -8.2090   21.1143   67.4275 H         1 ENB         0.0750 
     81 H293       -7.2169   19.6960   67.7495 H         1 ENB         0.0750 
     82 H2        -11.2116   16.5809   64.2820 H         1 ENB         0.1444 
@<TRIPOS>BOND
     1    1    2 1    
     2    1    3 1    
     3    1   22 1    
     4    1   41 1    
     5    2   35 2    
     6    2   82 1    
     7    3    4 am   BACKBONE|DICT|INTERRES
     8    3   42 1    
     9    4    5 1    
    10    4    6 2    
    11    5    7 1    
    12    5    8 1    
    13    5   43 1    
    14    7   14 am   BACKBONE|DICT|INTERRES
    15    7   44 1    
    16    8    9 ar   
    17    8   13 ar   
    18    9   10 ar   
    19    9   45 1    
    20   10   11 ar   
    21   10   46 1    
    22   11   12 ar   
    23   11   47 1    
    24   12   13 ar   
    25   12   48 1    
    26   13   49 1    
    27   14   15 1    
    28   14   16 2    
    29   15   17 1    
    30   15   29 1    
    31   15   50 1    
    32   17   18 am   BACKBONE|DICT|INTERRES
    33   17   51 1    
    34   18   19 1    
    35   18   20 2    
    36   19   21 1    
    37   21   32 1    
    38   21   33 1    
    39   21   34 1    
    40   22   23 1    
    41   22   52 1    
    42   22   53 1    
    43   23   24 1    
    44   23   27 1    
    45   23   54 1    
    46   24   25 1    
    47   24   55 1    
    48   24   56 1    
    49   25   26 1    
    50   25   57 1    
    51   25   58 1    
    52   26   27 am   BACKBONE|DICT|INTERRES
    53   26   59 1    
    54   27   28 2    
    55   29   30 1    
    56   29   31 1    
    57   29   60 1    
    58   30   61 1    
    59   30   62 1    
    60   30   63 1    
    61   31   64 1    
    62   31   65 1    
    63   31   66 1    
    64   32   67 1    
    65   32   68 1    
    66   32   69 1    
    67   33   70 1    
    68   33   71 1    
    69   33   72 1    
    70   34   73 1    
    71   34   74 1    
    72   34   75 1    
    73   35   36 1    
    74   35   76 1    
    75   36   37 1    
    76   36   38 2    
    77   37   39 1    
    78   39   40 1    
    79   39   77 1    
    80   39   78 1    
    81   40   79 1    
    82   40   80 1    
    83   40   81 1    
@<TRIPOS>SUBSTRUCTURE
     1 ENB         1 GROUP             0 B     ****    0 ROOT    
