@<TRIPOS>MOLECULE
2GX4_min_ligand
93   95    1
SMALL
USER_CHARGES


@<TRIPOS>ATOM
      1 C1        -11.6227    6.7699   74.4751 C.ar      1 NOL        -0.1026 
      2 C2        -12.7407    6.7498   73.6380 C.ar      1 NOL        -0.1064 
      3 C3        -13.0696    5.5927   72.9351 C.ar      1 NOL        -0.1026 
      4 C4        -12.2865    4.4499   73.0722 C.ar      1 NOL        -0.1347 
      5 C5        -11.1729    4.4739   73.9086 C.ar      1 NOL        -0.1182 
      6 C6        -10.8355    5.6304   74.6098 C.ar      1 NOL        -0.1347 
      7 C13       -13.5969    7.9986   73.4724 C.3       1 NOL         0.1885 
      8 O15       -13.3535    8.6320   72.2186 O.3       1 NOL        -0.3195 
      9 C17       -12.2041    9.2962   71.9743 C.2       1 NOL         0.5993 
     10 N19       -12.2048    9.7097   70.6528 N.am      1 NOL        -0.3522 
     11 C21       -11.0749   10.4556   70.0824 C.3       1 NOL         0.0177 
     12 C23       -11.6422   11.7618   69.4994 C.2       1 NOL         0.4967 
     13 N25       -11.3437   12.8973   70.1569 N.am      1 NOL        -0.4370 
     14 C27       -11.6556   14.2427   69.6691 C.3       1 NOL         0.0304 
     15 C29       -10.8963   14.5289   68.3647 C.2       1 NOL         0.4996 
     16 N31       -11.6221   15.0266   67.3534 N.am      1 NOL        -0.5782 
     17 C33       -11.0702   15.4250   66.0573 C.3       1 NOL         0.1210 
     18 C35       -11.4473   16.8892   65.7666 C.3       1 NOL         0.1325 
     19 O39       -10.4858   17.5250   64.9657 O.3       1 NOL        -0.6536 
     20 C41       -11.5273   14.4836   64.9210 C.3       1 NOL        -0.1247 
     21 C43       -11.0699   13.0065   65.0396 C.3       1 NOL        -0.1120 
     22 C45        -9.5624   12.7895   65.0731 C.3       1 NOL        -0.1444 
     23 C47        -9.3696   11.4535   64.3819 C.3       1 NOL         0.1100 
     24 N49       -10.5192   11.3869   63.4961 N.am      1 NOL        -0.6026 
     25 C51       -11.5423   12.1910   63.8250 C.2       1 NOL         0.4915 
     26 O54       -12.6465   12.2332   63.2915 O.2       1 NOL        -0.5117 
     27 O56        -9.6861   14.3051   68.3091 O.2       1 NOL        -0.5155 
     28 C58       -11.3066   15.3416   70.7010 C.3       1 NOL        -0.1481 
     29 C60       -11.9040   15.1744   72.1174 C.3       1 NOL        -0.0768 
     30 C62       -13.4319   14.9528   72.1229 C.3       1 NOL        -0.1266 
     31 C63       -13.9489   14.7204   73.5520 C.3       1 NOL        -0.1274 
     32 C64       -13.5808   15.8916   74.4887 C.3       1 NOL        -0.1296 
     33 C65       -12.0786   16.2328   74.4474 C.3       1 NOL        -0.1274 
     34 C66       -11.5720   16.3986   73.0018 C.3       1 NOL        -0.1266 
     35 O73       -12.2910   11.7247   68.4536 O.2       1 NOL        -0.5318 
     36 C75       -10.3166    9.6123   69.0126 C.3       1 NOL         0.2071 
     37 C77        -9.1109   10.3525   68.3925 C.3       1 NOL        -0.2352 
     38 O79        -9.8108    8.4550   69.6881 O.3       1 NOL        -0.4649 
     39 C81        -9.9620    7.1485   69.1131 C.3       1 NOL         0.3154 
     40 C83        -9.3795    7.0672   67.6839 C.3       1 NOL        -0.2310 
     41 C85       -11.4448    6.7268   69.1238 C.3       1 NOL        -0.2310 
     42 C87        -9.1597    6.2293   70.0519 C.3       1 NOL        -0.2310 
     43 O89       -11.3100    9.4827   72.8025 O.2       1 NOL        -0.5728 
     44 H1        -11.3585    7.6689   75.0103 H         1 NOL         0.1350 
     45 H3        -13.9302    5.5880   72.2833 H         1 NOL         0.1350 
     46 H4        -12.5394    3.5502   72.5320 H         1 NOL         0.1322 
     47 H5        -10.5634    3.5884   74.0141 H         1 NOL         0.1305 
     48 H6         -9.9692    5.6429   75.2543 H         1 NOL         0.1322 
     49 H131      -13.4325    8.6902   74.2981 H         1 NOL         0.0534 
     50 H132      -14.6474    7.7156   73.5258 H         1 NOL         0.0534 
     51 HN19      -13.0137    9.5284   70.0733 H         1 NOL         0.2683 
     52 H21       -10.3473   10.7284   70.8516 H         1 NOL         0.0847 
     53 HN25      -10.7955   12.8512   71.0064 H         1 NOL         0.3200 
     54 H27       -12.7265   14.2813   69.4600 H         1 NOL         0.0682 
     55 HN31      -12.6106   15.1808   67.4920 H         1 NOL         0.2992 
     56 H33        -9.9779   15.3883   66.0995 H         1 NOL         0.1291 
     57 H35       -12.3983   16.9441   65.2405 H         1 NOL         0.0494 
     58 HO39      -10.2188   18.3419   65.4077 H         1 NOL         0.4268 
     59 H411      -11.1760   14.8951   63.9766 H         1 NOL         0.0787 
     60 H412      -12.6160   14.5181   64.8759 H         1 NOL         0.0787 
     61 H43       -11.5366   12.5608   65.9197 H         1 NOL         0.1228 
     62 H451       -9.1382   12.8054   66.0769 H         1 NOL         0.0855 
     63 H452       -9.0526   13.5676   64.5045 H         1 NOL         0.0855 
     64 H471       -9.3910   10.6139   65.0789 H         1 NOL         0.0734 
     65 H472       -8.4388   11.4140   63.8158 H         1 NOL         0.0734 
     66 HN49      -10.6247   10.6460   62.8151 H         1 NOL         0.3146 
     67 H581      -11.6032   16.3118   70.2976 H         1 NOL         0.0927 
     68 H582      -10.2202   15.3854   70.8048 H         1 NOL         0.0927 
     69 H60       -11.4554   14.2998   72.5831 H         1 NOL         0.0617 
     70 H621      -13.6933   14.0924   71.5084 H         1 NOL         0.0702 
     71 H622      -13.9385   15.7978   71.6538 H         1 NOL         0.0702 
     72 H631      -13.5362   13.7900   73.9459 H         1 NOL         0.0632 
     73 H632      -15.0280   14.5877   73.5193 H         1 NOL         0.0632 
     74 H641      -13.8709   15.6664   75.5137 H         1 NOL         0.0656 
     75 H642      -14.1595   16.7677   74.1987 H         1 NOL         0.0656 
     76 H651      -11.5160   15.4445   74.9447 H         1 NOL         0.0632 
     77 H652      -11.8874   17.1433   75.0172 H         1 NOL         0.0632 
     78 H661      -11.9877   17.2986   72.5547 H         1 NOL         0.0702 
     79 H662      -10.4965   16.5709   73.0071 H         1 NOL         0.0702 
     80 H75       -11.0117    9.3351   68.2179 H         1 NOL         0.0547 
     81 H771       -8.5823    9.7308   67.6718 H         1 NOL         0.0748 
     82 H772       -9.4223   11.2515   67.8620 H         1 NOL         0.0748 
     83 H773       -8.3948   10.6521   69.1580 H         1 NOL         0.0748 
     84 H831       -9.4197    6.0481   67.2981 H         1 NOL         0.0702 
     85 H832       -9.9243    7.6969   66.9800 H         1 NOL         0.0702 
     86 H833       -8.3354    7.3806   67.6634 H         1 NOL         0.0702 
     87 H851      -11.5561    5.6767   68.8566 H         1 NOL         0.0702 
     88 H852      -11.8934    6.8609   70.1084 H         1 NOL         0.0702 
     89 H853      -12.0313    7.3033   68.4116 H         1 NOL         0.0702 
     90 H871       -9.1992    5.1886   69.7275 H         1 NOL         0.0702 
     91 H872       -8.1104    6.5241   70.0923 H         1 NOL         0.0702 
     92 H873       -9.5441    6.2727   71.0723 H         1 NOL         0.0702 
     93 H35       -11.5227   17.4741   66.6844 H         1 NOL         0.0494 
@<TRIPOS>BOND
     1    1    2 ar   
     2    1    6 ar   
     3    1   44 1    
     4    2    3 ar   
     5    2    7 1    
     6    3    4 ar   
     7    3   45 1    
     8    4    5 ar   
     9    4   46 1    
    10    5    6 ar   
    11    5   47 1    
    12    6   48 1    
    13    7    8 1    
    14    7   49 1    
    15    7   50 1    
    16    8    9 1    
    17    9   10 am   BACKBONE|DICT|INTERRES
    18    9   43 2    
    19   10   11 1    
    20   10   51 1    
    21   11   12 1    
    22   11   36 1    
    23   11   52 1    
    24   12   13 am   BACKBONE|DICT|INTERRES
    25   12   35 2    
    26   13   14 1    
    27   13   53 1    
    28   14   15 1    
    29   14   28 1    
    30   14   54 1    
    31   15   16 am   BACKBONE|DICT|INTERRES
    32   15   27 2    
    33   16   17 1    
    34   16   55 1    
    35   17   18 1    
    36   17   20 1    
    37   17   56 1    
    38   18   19 1    
    39   18   57 1    
    40   18   93 1    
    41   19   58 1    
    42   20   21 1    
    43   20   59 1    
    44   20   60 1    
    45   21   22 1    
    46   21   25 1    
    47   21   61 1    
    48   22   23 1    
    49   22   62 1    
    50   22   63 1    
    51   23   24 1    
    52   23   64 1    
    53   23   65 1    
    54   24   25 am   BACKBONE|DICT|INTERRES
    55   24   66 1    
    56   25   26 2    
    57   28   29 1    
    58   28   67 1    
    59   28   68 1    
    60   29   30 1    
    61   29   34 1    
    62   29   69 1    
    63   30   31 1    
    64   30   70 1    
    65   30   71 1    
    66   31   32 1    
    67   31   72 1    
    68   31   73 1    
    69   32   33 1    
    70   32   74 1    
    71   32   75 1    
    72   33   34 1    
    73   33   76 1    
    74   33   77 1    
    75   34   78 1    
    76   34   79 1    
    77   36   37 1    
    78   36   38 1    
    79   36   80 1    
    80   37   81 1    
    81   37   82 1    
    82   37   83 1    
    83   38   39 1    
    84   39   40 1    
    85   39   41 1    
    86   39   42 1    
    87   40   84 1    
    88   40   85 1    
    89   40   86 1    
    90   41   87 1    
    91   41   88 1    
    92   41   89 1    
    93   42   90 1    
    94   42   91 1    
    95   42   92 1    
@<TRIPOS>SUBSTRUCTURE
     1 NOL         1 GROUP             0 A     ****    0 ROOT    
