@<TRIPOS>MOLECULE
2QIQ_min_ligand
99   99    1
SMALL
USER_CHARGES


@<TRIPOS>ATOM
      1 O43       -11.0175    6.0109   71.3067 O.2       1 CYV        -0.5713 
      2 C42       -11.7480    5.9158   72.2944 C.2       1 CYV         0.6111 
      3 O44       -11.5592    5.0573   73.3261 O.3       1 CYV        -0.3367 
      4 C46       -10.2726    4.6751   73.8466 C.3       1 CYV         0.3044 
      5 C49       -10.5788    3.5623   74.8671 C.3       1 CYV        -0.2329 
      6 C48        -9.2960    4.1177   72.7797 C.3       1 CYV        -0.2329 
      7 C47        -9.6555    5.8943   74.5724 C.3       1 CYV        -0.2329 
      8 N41       -12.8638    6.6966   72.5640 N.am      1 CYV        -0.3956 
      9 C39       -13.2317    7.8330   71.6994 C.3       1 CYV         0.0377 
     10 C40       -14.5982    8.3864   72.1663 C.3       1 CYV         0.1126 
     11 O45       -14.5588    8.9337   73.4730 O.3       1 CYV        -0.6860 
     12 C37       -12.1637    8.9578   71.6409 C.2       1 CYV         0.5045 
     13 O38       -11.5260    9.2512   72.6539 O.2       1 CYV        -0.5114 
     14 N36       -12.0152    9.5725   70.4552 N.am      1 CYV        -0.4492 
     15 C32       -11.0321   10.6246   70.1585 C.3       1 CYV         0.0383 
     16 C33       -10.0270   10.1524   69.0603 C.3       1 CYV        -0.0995 
     17 C35        -9.0986   11.2669   68.5338 C.3       1 CYV        -0.1711 
     18 C34        -9.1923    8.9410   69.5191 C.3       1 CYV        -0.1711 
     19 C30       -11.8719   11.8138   69.7139 C.2       1 CYV         0.3850 
     20 O31       -12.6182   11.7701   68.7350 O.2       1 CYV        -0.4244 
     21 C29       -11.6812   13.1235   70.5049 C.3       1 CYV        -0.1938 
     22 C22       -11.9972   14.4561   69.7560 C.3       1 CYV        -0.0914 
     23 C23       -11.8902   15.6932   70.6896 C.3       1 CYV        -0.0946 
     24 C24       -12.6886   15.6178   71.9844 C.2       1 CYV        -0.1773 
     25 C25       -12.3026   16.0631   73.2014 C.2       1 CYV        -0.1111 
     26 C26       -13.1781   15.8836   74.4255 C.3       1 CYV        -0.1403 
     27 C27       -10.9957   16.7904   73.4825 C.3       1 CYV        -0.1403 
     28 C21       -11.0710   14.6686   68.5357 C.2       1 CYV         0.4955 
     29 O28        -9.8494   14.6905   68.6967 O.2       1 CYV        -0.5121 
     30 N20       -11.6491   14.8250   67.3309 N.am      1 CYV        -0.5769 
     31 C12       -10.9294   15.0161   66.0625 C.3       1 CYV         0.1568 
     32 C5        -10.7414   16.4935   65.6477 C.3       1 CYV        -0.1422 
     33 C6        -10.1938   17.4631   66.7185 C.3       1 CYV        -0.2190 
     34 C7        -10.2274   18.9387   66.2654 C.2       1 CYV         0.5080 
     35 O11        -9.3903   19.8067   66.8897 O.3       1 CYV        -0.3170 
     36 C9         -8.2177   19.4256   67.6024 C.3       1 CYV         0.1532 
     37 C10        -7.0699   19.0967   66.6332 C.3       1 CYV        -0.2217 
     38 O8        -10.9892   19.3050   65.3720 O.2       1 CYV        -0.4472 
     39 C19       -11.6346   14.2509   64.9192 C.3       1 CYV        -0.1241 
     40 C13       -11.3273   12.7350   64.8546 C.3       1 CYV        -0.1218 
     41 C14        -9.8565   12.3888   64.6485 C.3       1 CYV        -0.1513 
     42 C15        -9.8748   11.1651   63.7553 C.3       1 CYV         0.1142 
     43 N16       -11.1372   11.3083   63.0525 N.am      1 CYV        -0.6102 
     44 C17       -12.0325   12.1182   63.6388 C.2       1 CYV         0.4905 
     45 O18       -13.1989   12.2990   63.3037 O.2       1 CYV        -0.4960 
     46 H491       -9.6672    3.1672   75.3173 H         1 CYV         0.0756 
     47 H492      -11.2061    3.9293   75.6791 H         1 CYV         0.0756 
     48 H493      -11.1049    2.7276   74.4013 H         1 CYV         0.0756 
     49 H481       -8.4258    3.6509   73.2428 H         1 CYV         0.0756 
     50 H482       -9.7789    3.3647   72.1558 H         1 CYV         0.0756 
     51 H483       -8.9159    4.8970   72.1196 H         1 CYV         0.0756 
     52 H471       -8.7193    5.6351   75.0676 H         1 CYV         0.0756 
     53 H472       -9.4468    6.7119   73.8811 H         1 CYV         0.0756 
     54 H473      -10.3330    6.2867   75.3329 H         1 CYV         0.0756 
     55 HN41      -13.3546    6.5726   73.4396 H         1 CYV         0.2877 
     56 H39       -13.3693    7.4310   70.6933 H         1 CYV         0.0829 
     57 H401      -15.3495    7.5975   72.1388 H         1 CYV         0.0713 
     58 H402      -14.9512    9.1531   71.4757 H         1 CYV         0.0713 
     59 HO45      -13.9817    9.7021   73.4625 H         1 CYV         0.4296 
     60 HN36      -12.5697    9.2583   69.6681 H         1 CYV         0.3037 
     61 H32       -10.4599   10.8927   71.0500 H         1 CYV         0.1065 
     62 H33       -10.6032    9.8143   68.1953 H         1 CYV         0.0677 
     63 H351       -8.3689   10.8737   67.8256 H         1 CYV         0.0684 
     64 H352       -9.6582   12.0408   68.0100 H         1 CYV         0.0684 
     65 H353       -8.5507   11.7423   69.3479 H         1 CYV         0.0684 
     66 H341       -8.4938    8.6246   68.7442 H         1 CYV         0.0684 
     67 H342       -8.6143    9.1767   70.4130 H         1 CYV         0.0684 
     68 H343       -9.8243    8.0831   69.7492 H         1 CYV         0.0684 
     69 H291      -10.6581   13.1606   70.8754 H         1 CYV         0.0933 
     70 H292      -12.3185   13.0414   71.3851 H         1 CYV         0.0933 
     71 H22       -13.0313   14.4081   69.4105 H         1 CYV         0.1180 
     72 H231      -12.2492   16.5725   70.1544 H         1 CYV         0.0824 
     73 H232      -10.8411   15.8768   70.9225 H         1 CYV         0.0824 
     74 H24       -13.6548   15.1431   71.8899 H         1 CYV         0.1261 
     75 H261      -12.6302   15.3400   75.1945 H         1 CYV         0.0663 
     76 H262      -13.4756   16.8519   74.8284 H         1 CYV         0.0663 
     77 H263      -14.0851   15.3249   74.1944 H         1 CYV         0.0663 
     78 H271      -11.1598   17.6312   74.1573 H         1 CYV         0.0663 
     79 H272      -10.2925   16.1065   73.9558 H         1 CYV         0.0663 
     80 H273      -10.5225   17.1905   72.5877 H         1 CYV         0.0663 
     81 HN20      -12.6558   14.7789   67.2699 H         1 CYV         0.2942 
     82 H12        -9.9243   14.5980   66.1592 H         1 CYV         0.1241 
     83 H51       -11.6814   16.8655   65.2474 H         1 CYV         0.0903 
     84 H52       -10.0589   16.5150   64.8009 H         1 CYV         0.0903 
     85 H61        -9.1883   17.1480   66.9924 H         1 CYV         0.0956 
     86 H62       -10.7992   17.3956   67.6222 H         1 CYV         0.0956 
     87 H91        -8.4110   18.6072   68.2966 H         1 CYV         0.0465 
     88 H92        -7.9193   20.2759   68.2144 H         1 CYV         0.0465 
     89 H101       -6.1498   18.8903   67.1797 H         1 CYV         0.0733 
     90 H102       -7.2939   18.2230   66.0209 H         1 CYV         0.0733 
     91 H103       -6.8750   19.9338   65.9613 H         1 CYV         0.0733 
     92 H191      -11.3495   14.6983   63.9670 H         1 CYV         0.0702 
     93 H192      -12.7122   14.4153   64.9910 H         1 CYV         0.0702 
     94 H13       -11.7149   12.2425   65.7492 H         1 CYV         0.1048 
     95 H141       -9.3096   12.2175   65.5750 H         1 CYV         0.0837 
     96 H142       -9.3509   13.2009   64.1256 H         1 CYV         0.0837 
     97 H151       -9.8705   10.2312   64.3205 H         1 CYV         0.0765 
     98 H152       -9.0344   11.1523   63.0594 H         1 CYV         0.0765 
     99 HN16      -11.3912   10.6850   62.2967 H         1 CYV         0.3180 
@<TRIPOS>BOND
     1    1    2 2    
     2    2    3 1    
     3    2    8 am   BACKBONE|DICT|INTERRES
     4    3    4 1    
     5    4    5 1    
     6    4    6 1    
     7    4    7 1    
     8    5   46 1    
     9    5   47 1    
    10    5   48 1    
    11    6   49 1    
    12    6   50 1    
    13    6   51 1    
    14    7   52 1    
    15    7   53 1    
    16    7   54 1    
    17    8    9 1    
    18    8   55 1    
    19    9   10 1    
    20    9   12 1    
    21    9   56 1    
    22   10   11 1    
    23   10   57 1    
    24   10   58 1    
    25   11   59 1    
    26   12   13 2    
    27   12   14 am   BACKBONE|DICT|INTERRES
    28   14   15 1    
    29   14   60 1    
    30   15   16 1    
    31   15   19 1    
    32   15   61 1    
    33   16   17 1    
    34   16   18 1    
    35   16   62 1    
    36   17   63 1    
    37   17   64 1    
    38   17   65 1    
    39   18   66 1    
    40   18   67 1    
    41   18   68 1    
    42   19   20 2    
    43   19   21 1    
    44   21   22 1    
    45   21   69 1    
    46   21   70 1    
    47   22   23 1    
    48   22   28 1    
    49   22   71 1    
    50   23   24 1    
    51   23   72 1    
    52   23   73 1    
    53   24   25 2    
    54   24   74 1    
    55   25   26 1    
    56   25   27 1    
    57   26   75 1    
    58   26   76 1    
    59   26   77 1    
    60   27   78 1    
    61   27   79 1    
    62   27   80 1    
    63   28   29 2    
    64   28   30 am   BACKBONE|DICT|INTERRES
    65   30   31 1    
    66   30   81 1    
    67   31   32 1    
    68   31   39 1    
    69   31   82 1    
    70   32   33 1    
    71   32   83 1    
    72   32   84 1    
    73   33   34 1    
    74   33   85 1    
    75   33   86 1    
    76   34   35 1    
    77   34   38 2    
    78   35   36 1    
    79   36   37 1    
    80   36   87 1    
    81   36   88 1    
    82   37   89 1    
    83   37   90 1    
    84   37   91 1    
    85   39   40 1    
    86   39   92 1    
    87   39   93 1    
    88   40   41 1    
    89   40   44 1    
    90   40   94 1    
    91   41   42 1    
    92   41   95 1    
    93   41   96 1    
    94   42   43 1    
    95   42   97 1    
    96   42   98 1    
    97   43   44 am   BACKBONE|DICT|INTERRES
    98   43   99 1    
    99   44   45 2    
@<TRIPOS>SUBSTRUCTURE
     1 CYV         1 GROUP             0 A     ****    0 ROOT    
