@<TRIPOS>MOLECULE
5REH_min_ligand
39   40    1
SMALL
USER_CHARGES


@<TRIPOS>ATOM
      1 N1        -12.7390   12.7962   63.6657 N.ar      1 AWP        -0.2630 
      2 N3         -6.0563   10.0852   64.7066 N.am      1 AWP        -0.3364 
      3 C4        -11.4985   13.7556   65.5048 C.ar      1 AWP        -0.1762 
      4 C5        -10.3351   13.1031   65.0818 C.ar      1 AWP        -0.0400 
      5 C6         -9.0345   13.2978   65.8496 C.3       1 AWP        -0.1133 
      6 C7         -8.4892   12.0286   66.5359 C.3       1 AWP        -0.0235 
      7 C8         -6.5338   11.2208   65.2416 C.2       1 AWP         0.5082 
      8 C10        -4.3120   10.5408   62.9117 C.3       1 AWP        -0.1411 
      9 C13        -2.7994    8.1414   63.8298 C.3       1 AWP        -0.1238 
     10 C1        -10.3915   12.2866   63.9460 C.ar      1 AWP        -0.1762 
     11 C2        -11.6075   12.1593   63.2724 C.ar      1 AWP        -0.0130 
     12 C3        -12.6724   13.5738   64.7762 C.ar      1 AWP        -0.0130 
     13 N2         -7.8087   11.0907   65.6444 N.am      1 AWP        -0.3527 
     14 O1         -5.8606   12.2402   65.4063 O.2       1 AWP        -0.5630 
     15 C9         -4.6746    9.8687   64.2616 C.3       1 AWP        -0.0026 
     16 C11        -2.8724   10.2592   62.4390 C.3       1 AWP        -0.1238 
     17 C12        -2.5431    8.7579   62.4453 C.3       1 AWP        -0.1319 
     18 C14        -4.2409    8.3844   64.3207 C.3       1 AWP        -0.1411 
     19 HN3        -6.7012    9.3262   64.5393 H         1 AWP         0.2378 
     20 H4        -11.4993   14.3887   66.3802 H         1 AWP         0.1452 
     21 H61        -9.1850   14.0634   66.6125 H         1 AWP         0.0853 
     22 H62        -8.2810   13.7241   65.1897 H         1 AWP         0.0853 
     23 H71        -9.3253   11.4898   66.9843 H         1 AWP         0.0844 
     24 H72        -7.8721   12.2935   67.3940 H         1 AWP         0.0844 
     25 H101       -4.4637   11.6196   62.9723 H         1 AWP         0.0684 
     26 H102       -4.9880   10.1624   62.1444 H         1 AWP         0.0684 
     27 H131       -2.0969    8.5657   64.5489 H         1 AWP         0.0700 
     28 H132       -2.5927    7.0706   63.8023 H         1 AWP         0.0700 
     29 H1         -9.5167   11.7650   63.5875 H         1 AWP         0.1452 
     30 H2        -11.6871   11.5284   62.3998 H         1 AWP         0.1586 
     31 H3        -13.5845   14.0579   65.0910 H         1 AWP         0.1586 
     32 HN2        -8.3011   10.2320   65.4376 H         1 AWP         0.2476 
     33 H9         -4.0337   10.3581   65.0001 H         1 AWP         0.1077 
     34 H111       -2.1703   10.7863   63.0872 H         1 AWP         0.0700 
     35 H112       -2.7240   10.6674   61.4384 H         1 AWP         0.0700 
     36 H121       -3.1490    8.2453   61.6963 H         1 AWP         0.0664 
     37 H122       -1.5032    8.6036   62.1549 H         1 AWP         0.0664 
     38 H141       -4.3433    8.0019   65.3376 H         1 AWP         0.0684 
     39 H142       -4.9112    7.7944   63.6938 H         1 AWP         0.0684 
@<TRIPOS>BOND
     1    1   11 ar   
     2    1   12 ar   
     3    2    7 am   BACKBONE|DICT|INTERRES
     4    2   15 1    
     5    2   19 1    
     6    3    4 ar   
     7    3   12 ar   
     8    3   20 1    
     9    4    5 1    
    10    4   10 ar   
    11    5    6 1    
    12    5   21 1    
    13    5   22 1    
    14    6   13 1    
    15    6   23 1    
    16    6   24 1    
    17    7   13 am   BACKBONE|DICT|INTERRES
    18    7   14 2    
    19    8   15 1    
    20    8   16 1    
    21    8   25 1    
    22    8   26 1    
    23    9   17 1    
    24    9   18 1    
    25    9   27 1    
    26    9   28 1    
    27   10   11 ar   
    28   10   29 1    
    29   11   30 1    
    30   12   31 1    
    31   13   32 1    
    32   15   18 1    
    33   15   33 1    
    34   16   17 1    
    35   16   34 1    
    36   16   35 1    
    37   17   36 1    
    38   17   37 1    
    39   18   38 1    
    40   18   39 1    
@<TRIPOS>SUBSTRUCTURE
     1 AWP         1 GROUP             0 A     ****    0 ROOT    
