@<TRIPOS>MOLECULE
5RFE_min_ligand
33   34    1
SMALL
USER_CHARGES


@<TRIPOS>ATOM
      1 C13        -8.2981   12.6024   65.9286 C.3       1 JGG         0.1173 
      2 C15        -6.6701   13.5861   67.3681 C.3       1 JGG         0.1173 
      3 C17       -14.9807   14.8629   71.4816 C.1       1 JGG         0.3898 
      4 C01       -12.2061   12.4485   72.1310 C.ar      1 JGG        -0.1160 
      5 C02       -13.4791   13.0056   72.0758 C.ar      1 JGG        -0.0944 
      6 C03       -13.6570   14.2670   71.5068 C.ar      1 JGG        -0.1008 
      7 C04       -12.5666   14.9696   70.9887 C.ar      1 JGG        -0.0944 
      8 C05       -11.2945   14.4064   71.0424 C.ar      1 JGG        -0.1160 
      9 C06       -11.1105   13.1442   71.6160 C.ar      1 JGG        -0.0962 
     10 C07        -9.7204   12.5196   71.6927 C.3       1 JGG         0.0126 
     11 N08        -8.9357   12.5680   70.4578 N.am      1 JGG        -0.3454 
     12 C09        -9.1456   11.8154   69.3594 C.2       1 JGG         0.5012 
     13 O10       -10.0462   10.9723   69.3157 O.2       1 JGG        -0.5679 
     14 N11        -8.3386   12.0962   68.3003 N.am      1 JGG        -0.1538 
     15 C12        -8.6469   11.5215   66.9758 C.3       1 JGG        -0.0942 
     16 O14        -6.9559   13.0544   66.0781 O.3       1 JGG        -0.4408 
     17 C16        -6.9387   12.5449   68.4722 C.3       1 JGG        -0.0942 
     18 N18       -16.0342   15.3357   71.4622 N.1       1 JGG        -0.4210 
     19 H131       -8.9819   13.4478   66.0323 H         1 JGG         0.0555 
     20 H132       -8.4355   12.2106   64.9204 H         1 JGG         0.0555 
     21 H151       -7.2837   14.4707   67.5486 H         1 JGG         0.0555 
     22 H152       -5.6317   13.9156   67.4012 H         1 JGG         0.0555 
     23 H01       -12.0733   11.4765   72.5804 H         1 JGG         0.1449 
     24 H02       -14.3138   12.4567   72.4889 H         1 JGG         0.1462 
     25 H04       -12.6934   15.9504   70.5502 H         1 JGG         0.1462 
     26 H05       -10.4524   14.9539   70.6441 H         1 JGG         0.1449 
     27 H071       -9.7866   11.4836   72.0293 H         1 JGG         0.0888 
     28 H072       -9.1660   13.0554   72.4632 H         1 JGG         0.0888 
     29 HN08       -8.2427   13.3027   70.4086 H         1 JGG         0.2489 
     30 H121       -7.9936   10.6578   66.8487 H         1 JGG         0.0916 
     31 H122       -9.6992   11.2536   66.8645 H         1 JGG         0.0916 
     32 H161       -6.7255   12.9912   69.4439 H         1 JGG         0.0916 
     33 H162       -6.3128   11.6676   68.3043 H         1 JGG         0.0916 
@<TRIPOS>BOND
     1    1   15 1    
     2    1   16 1    
     3    1   19 1    
     4    1   20 1    
     5    2   16 1    
     6    2   17 1    
     7    2   21 1    
     8    2   22 1    
     9    3    6 1    
    10    3   18 3    
    11    4    5 ar   
    12    4    9 ar   
    13    4   23 1    
    14    5    6 ar   
    15    5   24 1    
    16    6    7 ar   
    17    7    8 ar   
    18    7   25 1    
    19    8    9 ar   
    20    8   26 1    
    21    9   10 1    
    22   10   11 1    
    23   10   27 1    
    24   10   28 1    
    25   11   12 am   BACKBONE|DICT|INTERRES
    26   11   29 1    
    27   12   13 2    
    28   12   14 am   BACKBONE|DICT|INTERRES
    29   14   15 1    
    30   14   17 1    
    31   15   30 1    
    32   15   31 1    
    33   17   32 1    
    34   17   33 1    
@<TRIPOS>SUBSTRUCTURE
     1 JGG         1 GROUP             0 A     ****    0 ROOT    
