@<TRIPOS>MOLECULE
5RFI_min_ligand
40   41    1
SMALL
USER_CHARGES


@<TRIPOS>ATOM
      1 N1        -11.0669   16.2604   66.5188 N.am      1 T71        -0.3707 
      2 C4         -8.7369   17.6666   71.4302 C.ar      1 T71         0.0214 
      3 C5        -10.2130   17.2857   71.4449 C.3       1 T71        -0.1414 
      4 C6         -7.7575   16.8974   70.7700 C.ar      1 T71        -0.1776 
      5 C7         -6.4257   17.3291   70.7575 C.ar      1 T71        -0.0400 
      6 C8        -10.2180   14.7258   68.2128 C.3       1 T71        -0.0841 
      7 C10       -10.2508   17.3930   67.0125 C.3       1 T71        -0.0100 
      8 C13       -12.2291   14.9719   64.7376 C.3       1 T71        -0.1988 
      9 N          -9.4190   15.8423   68.7571 N.pl3     1 T71        -0.1742 
     10 C          -4.6155   18.9914   71.3708 C.3       1 T71        -0.1274 
     11 O          -8.7414   14.4596   70.8817 O.2       1 T71        -0.4970 
     12 C1         -6.0561   18.5127   71.3934 C.ar      1 T71        -0.1004 
     13 C11        -9.0022   16.7864   67.6928 C.3       1 T71        -0.0841 
     14 C12       -11.5229   16.2296   65.2451 C.2       1 T71         0.4674 
     15 C2         -7.0220   19.2542   72.0672 C.ar      1 T71        -0.0725 
     16 C3         -8.3509   18.8383   72.0877 C.ar      1 T71        -0.1493 
     17 C9        -11.4915   15.2806   67.5455 C.3       1 T71        -0.0100 
     18 O1         -6.9841   14.9761   69.1133 O.2       1 T71        -0.4970 
     19 O2        -11.3281   17.1431   64.4457 O.2       1 T71        -0.5339 
     20 S          -8.1569   15.3797   69.8985 S.o2      1 T71         0.8587 
     21 H51       -10.7673   17.8486   72.1959 H         1 T71         0.0822 
     22 H52       -10.6722   17.4709   70.4755 H         1 T71         0.0822 
     23 H53       -10.3544   16.2313   71.6717 H         1 T71         0.0822 
     24 H7         -5.6693   16.7511   70.2466 H         1 T71         0.1476 
     25 H81       -10.4835   14.0312   69.0096 H         1 T71         0.0943 
     26 H82        -9.6279   14.2300   67.4415 H         1 T71         0.0943 
     27 H101      -10.8601   17.9104   67.7536 H         1 T71         0.0980 
     28 H102       -9.9770   18.1136   66.2402 H         1 T71         0.0980 
     29 H131      -12.5548   15.1059   63.7094 H         1 T71         0.0877 
     30 H132      -11.5595   14.1116   64.7726 H         1 T71         0.0877 
     31 H133      -13.1168   14.7540   65.3283 H         1 T71         0.0877 
     32 HXT1       -4.2884   19.2525   72.3779 H         1 T71         0.0736 
     33 HXT2       -3.9349   18.2270   70.9931 H         1 T71         0.0736 
     34 HXT3       -4.5250   19.8855   70.7531 H         1 T71         0.0736 
     35 H111       -8.3864   17.5787   68.1193 H         1 T71         0.0943 
     36 H112       -8.4516   16.2253   66.9376 H         1 T71         0.0943 
     37 H2         -6.7330   20.1574   72.5756 H         1 T71         0.1364 
     38 H3         -9.0823   19.4398   72.6081 H         1 T71         0.1375 
     39 H91       -12.1323   14.4751   67.1918 H         1 T71         0.0980 
     40 H92       -12.0668   15.8501   68.2752 H         1 T71         0.0980 
@<TRIPOS>BOND
     1    1    7 1    
     2    1   14 am   BACKBONE|DICT|INTERRES
     3    1   17 1    
     4    2    3 1    
     5    2    4 ar   
     6    2   16 ar   
     7    3   21 1    
     8    3   22 1    
     9    3   23 1    
    10    4    5 ar   
    11    4   20 1    
    12    5   12 ar   
    13    5   24 1    
    14    6    9 1    
    15    6   17 1    
    16    6   25 1    
    17    6   26 1    
    18    7   13 1    
    19    7   27 1    
    20    7   28 1    
    21    8   14 1    
    22    8   29 1    
    23    8   30 1    
    24    8   31 1    
    25    9   13 1    
    26    9   20 1    
    27   10   12 1    
    28   10   32 1    
    29   10   33 1    
    30   10   34 1    
    31   11   20 2    
    32   12   15 ar   
    33   13   35 1    
    34   13   36 1    
    35   14   19 2    
    36   15   16 ar   
    37   15   37 1    
    38   16   38 1    
    39   17   39 1    
    40   17   40 1    
    41   18   20 2    
@<TRIPOS>SUBSTRUCTURE
     1 T71         1 GROUP             0 A     ****    0 ROOT    
