@<TRIPOS>MOLECULE
5RFL_min_ligand
37   38    1
SMALL
USER_CHARGES


@<TRIPOS>ATOM
      1 N1        -11.1761   17.4395   66.6890 N.am      1 T7G        -0.3670 
      2 C4         -6.5592   14.7185   71.7888 C.ar      1 T7G        -0.0820 
      3 C5         -6.6829   14.7683   70.3968 C.ar      1 T7G         0.0015 
      4 C6         -7.6606   16.4171   68.8297 C.2       1 T7G         0.4627 
      5 C7         -8.9994   17.1119   68.5015 C.3       1 T7G        -0.0989 
      6 C8         -8.9295   18.1326   67.3245 C.3       1 T7G        -0.1492 
      7 C10       -11.4336   16.6638   67.9087 C.3       1 T7G         0.0218 
      8 C13       -11.8334   15.5110   65.2015 C.3       1 T7G        -0.1981 
      9 N          -7.6984   15.5963   69.9004 N.am      1 T7G        -0.3640 
     10 C          -5.9015   13.9055   69.5992 C.ar      1 T7G         0.2175 
     11 O          -6.0309   13.8411   68.2341 O.3       1 T7G        -0.5478 
     12 C1         -4.9804   13.0509   70.2089 C.ar      1 T7G        -0.2183 
     13 C11       -10.1011   16.0245   68.3275 C.3       1 T7G        -0.1492 
     14 C12       -11.2756   16.9204   65.4371 C.2       1 T7G         0.4670 
     15 C2         -4.8470   13.0291   71.5964 C.ar      1 T7G        -0.0842 
     16 C3         -5.6434   13.8545   72.3860 C.ar      1 T7G        -0.1611 
     17 C9        -10.3475   18.6364   66.9316 C.3       1 T7G         0.0218 
     18 O1         -6.6392   16.6648   68.1863 O.2       1 T7G        -0.5270 
     19 O2        -11.0097   17.5846   64.4409 O.2       1 T7G        -0.5395 
     20 H4         -7.1813   15.3409   72.4169 H         1 T7G         0.1440 
     21 H7         -9.2780   17.6360   69.4189 H         1 T7G         0.1044 
     22 H81        -8.5147   17.6698   66.4266 H         1 T7G         0.0830 
     23 H82        -8.3457   19.0112   67.6010 H         1 T7G         0.0830 
     24 H101      -12.2883   15.9921   67.8432 H         1 T7G         0.0870 
     25 H102      -11.7546   17.3736   68.6714 H         1 T7G         0.0870 
     26 H131      -12.3825   15.4849   64.2602 H         1 T7G         0.0871 
     27 H132      -11.0108   14.7995   65.1267 H         1 T7G         0.0871 
     28 HN         -8.5324   15.6341   70.4669 H         1 T7G         0.2944 
     29 HO         -6.6110   14.5244   67.8861 H         1 T7G         0.4056 
     30 H1         -4.3746   12.3902   69.6060 H         1 T7G         0.1336 
     31 H111      -10.3061   15.4979   69.2600 H         1 T7G         0.0830 
     32 H112       -9.8442   15.3157   67.5367 H         1 T7G         0.0830 
     33 H2         -4.1364   12.3599   72.0596 H         1 T7G         0.1343 
     34 H3         -5.5544   13.8195   73.4618 H         1 T7G         0.1367 
     35 H91       -10.8027   19.1833   67.7588 H         1 T7G         0.0870 
     36 H92       -10.3741   19.3458   66.1031 H         1 T7G         0.0870 
     37 H13       -12.5151   15.1643   65.9745 H         1 T7G         0.0871 
@<TRIPOS>BOND
     1    1    7 1    
     2    1   14 am   BACKBONE|DICT|INTERRES
     3    1   17 1    
     4    2    3 ar   
     5    2   16 ar   
     6    2   20 1    
     7    3    9 1    
     8    3   10 ar   
     9    4    5 1    
    10    4    9 am   BACKBONE|DICT|INTERRES
    11    4   18 2    
    12    5    6 1    
    13    5   13 1    
    14    5   21 1    
    15    6   17 1    
    16    6   22 1    
    17    6   23 1    
    18    7   13 1    
    19    7   24 1    
    20    7   25 1    
    21    8   14 1    
    22    8   26 1    
    23    8   27 1    
    24    8   37 1    
    25    9   28 1    
    26   10   11 1    
    27   10   12 ar   
    28   11   29 1    
    29   12   15 ar   
    30   12   30 1    
    31   13   31 1    
    32   13   32 1    
    33   14   19 2    
    34   15   16 ar   
    35   15   33 1    
    36   16   34 1    
    37   17   35 1    
    38   17   36 1    
@<TRIPOS>SUBSTRUCTURE
     1 T7G         1 GROUP             0 A     ****    0 ROOT    
