@<TRIPOS>MOLECULE
6Y2GB_min_ligand
84   87    1
SMALL
USER_CHARGES


@<TRIPOS>ATOM
      1 O26        -9.9812    7.1807   70.0928 O.2       1 O6K        -0.5615 
      2 C24       -10.7816    7.5443   69.2284 C.2       1 O6K         0.5750 
      3 O25       -11.0701    6.8347   68.1032 O.3       1 O6K        -0.3404 
      4 C27       -10.3480    5.6707   67.6529 C.3       1 O6K         0.3050 
      5 C31       -11.0370    5.2549   66.3406 C.3       1 O6K        -0.2328 
      6 C32       -10.4499    4.5032   68.6650 C.3       1 O6K        -0.2328 
      7 C33        -8.8700    6.0230   67.3540 C.3       1 O6K        -0.2328 
      8 N23       -11.4959    8.7426   69.1942 N.am      1 O6K        -0.2045 
      9 C19       -11.4534    9.8247   70.0475 C.ar      1 O6K        -0.3160 
     10 C21       -12.0838   11.0609   69.5309 C.ar      1 O6K         0.6665 
     11 O22       -12.7031   11.0698   68.4591 O.2       1 O6K        -0.5960 
     12 C18       -10.8473    9.7922   71.2668 C.ar      1 O6K         0.0662 
     13 C17       -10.7890   10.9865   72.0776 C.ar      1 O6K        -0.2902 
     14 C16       -11.3121   12.1038   71.5520 C.ar      1 O6K        -0.1344 
     15 N15       -11.9158   12.2057   70.3102 N.pl3     1 O6K        -0.0314 
     16 C20       -12.3993   13.5013   69.7305 C.3       1 O6K        -0.0795 
     17 C22       -12.6476   14.7083   70.6938 C.3       1 O6K        -0.1129 
     18 C29       -13.9738   14.6989   71.4797 C.3       1 O6K        -0.1488 
     19 C34       -13.9145   14.5015   72.9744 C.3       1 O6K        -0.1826 
     20 C30       -14.5496   13.4484   72.1044 C.3       1 O6K        -0.1826 
     21 C36       -11.3946   13.9613   68.6492 C.2       1 O6K         0.5073 
     22 O37       -10.1778   13.8731   68.8250 O.2       1 O6K        -0.5077 
     23 N38       -11.9483   14.5128   67.5617 N.am      1 O6K        -0.5817 
     24 C40       -11.2272   15.2239   66.5016 C.3       1 O6K         0.1402 
     25 C42       -11.6810   14.6476   65.1253 C.3       1 O6K        -0.1252 
     26 C45       -11.3396   13.1363   64.9466 C.3       1 O6K        -0.1110 
     27 C47       -11.9972   12.5389   63.6933 C.2       1 O6K         0.4917 
     28 O48       -13.1874   12.5887   63.3969 O.2       1 O6K        -0.5151 
     29 N49       -11.0280   11.8871   63.0311 N.am      1 O6K        -0.6038 
     30 C51        -9.7283   11.8458   63.6823 C.3       1 O6K         0.1100 
     31 C54        -9.8470   12.8765   64.7861 C.3       1 O6K        -0.1471 
     32 C57       -11.3484   16.7687   66.7744 C.3       1 O6K         0.1415 
     33 O40       -10.7619   17.0939   68.0241 O.3       1 O6K        -0.6604 
     34 C35       -10.9402   17.7558   65.6396 C.2       1 O6K         0.4888 
     35 O41       -11.4238   17.5792   64.5269 O.2       1 O6K        -0.5489 
     36 N36       -10.2029   18.8744   65.8089 N.am      1 O6K        -0.5642 
     37 C13        -9.1339   19.1875   66.7565 C.3       1 O6K         0.1553 
     38 C14        -7.8192   18.5045   66.4095 C.ar      1 O6K        -0.1192 
     39 C28        -6.8806   19.1760   65.6208 C.ar      1 O6K        -0.1105 
     40 C26        -5.6552   18.5813   65.3391 C.ar      1 O6K        -0.1310 
     41 C25        -5.3678   17.3183   65.8523 C.ar      1 O6K        -0.1169 
     42 C23        -6.2969   16.6441   66.6423 C.ar      1 O6K        -0.1310 
     43 C15        -7.5199   17.2429   66.9312 C.ar      1 O6K        -0.1105 
     44 H311      -10.6539    4.3075   65.9597 H         1 O6K         0.0752 
     45 H312      -12.1082    5.1427   66.4846 H         1 O6K         0.0752 
     46 H313      -10.9003    5.9970   65.5570 H         1 O6K         0.0752 
     47 H321      -10.0576    3.5758   68.2463 H         1 O6K         0.0752 
     48 H322       -9.8934    4.6970   69.5817 H         1 O6K         0.0752 
     49 H323      -11.4870    4.3221   68.9488 H         1 O6K         0.0752 
     50 H331       -8.3470    5.1848   66.8920 H         1 O6K         0.0752 
     51 H332       -8.7961    6.8709   66.6714 H         1 O6K         0.0752 
     52 H333       -8.3205    6.2905   68.2564 H         1 O6K         0.0752 
     53 HN23      -12.0798    8.8704   68.3786 H         1 O6K         0.2437 
     54 H18       -10.3853    8.9024   71.6635 H         1 O6K         0.1569 
     55 H17       -10.3484   10.9776   73.0604 H         1 O6K         0.1975 
     56 H16       -11.3258   13.0180   72.1197 H         1 O6K         0.1691 
     57 H20       -13.3579   13.3290   69.2379 H         1 O6K         0.1518 
     58 H221      -12.7107   15.6215   70.0965 H         1 O6K         0.0777 
     59 H222      -11.7984   14.9014   71.3493 H         1 O6K         0.0777 
     60 H29       -14.6811   15.4431   71.1079 H         1 O6K         0.1202 
     61 H341      -14.5322   15.1622   73.5798 H         1 O6K         0.1019 
     62 H342      -12.9630   14.2713   73.4522 H         1 O6K         0.1019 
     63 H301      -14.0490   12.4895   71.9805 H         1 O6K         0.1019 
     64 H302      -15.6303   13.3460   72.1133 H         1 O6K         0.1019 
     65 HN38      -12.9559   14.5172   67.4909 H         1 O6K         0.3105 
     66 H40       -10.1572   15.0059   66.5555 H         1 O6K         0.1191 
     67 H421      -11.2082   15.1861   64.3062 H         1 O6K         0.0880 
     68 H422      -12.7540   14.7988   65.0084 H         1 O6K         0.0880 
     69 H45       -11.7274   12.5539   65.7840 H         1 O6K         0.1138 
     70 HN49      -11.2154   11.3351   62.2052 H         1 O6K         0.3156 
     71 H511       -8.9276   12.0968   62.9866 H         1 O6K         0.0751 
     72 H512       -9.5156   10.8565   64.0824 H         1 O6K         0.0751 
     73 H541       -9.3703   12.5496   65.7116 H         1 O6K         0.0872 
     74 H542       -9.3404   13.7884   64.4741 H         1 O6K         0.0872 
     75 HO40      -11.1640   17.9019   68.3537 H         1 O6K         0.4338 
     76 HN36      -10.1623   19.4579   64.9872 H         1 O6K         0.3128 
     77 H131       -9.3959   19.0142   67.7970 H         1 O6K         0.0854 
     78 H132       -8.9819   20.2659   66.7189 H         1 O6K         0.0854 
     79 H28        -7.0967   20.1576   65.2255 H         1 O6K         0.1340 
     80 H26        -4.9299   19.0959   64.7270 H         1 O6K         0.1345 
     81 H25        -4.4192   16.8526   65.6305 H         1 O6K         0.1338 
     82 H23        -6.0686   15.6635   67.0346 H         1 O6K         0.1345 
     83 H15        -8.2289   16.7213   67.5574 H         1 O6K         0.1340 
     84 H57       -12.3942   16.9931   66.9527 H         1 O6K         0.0900 
@<TRIPOS>BOND
     1    1    2 2    
     2    2    3 1    
     3    2    8 am   BACKBONE|DICT|INTERRES
     4    3    4 1    
     5    4    5 1    
     6    4    6 1    
     7    4    7 1    
     8    5   44 1    
     9    5   45 1    
    10    5   46 1    
    11    6   47 1    
    12    6   48 1    
    13    6   49 1    
    14    7   50 1    
    15    7   51 1    
    16    7   52 1    
    17    8    9 1    
    18    8   53 1    
    19    9   10 ar   
    20    9   12 ar   
    21   10   11 2    
    22   10   15 ar   
    23   12   13 ar   
    24   12   54 1    
    25   13   14 ar   
    26   13   55 1    
    27   14   15 ar   
    28   14   56 1    
    29   15   16 1    
    30   16   17 1    
    31   16   21 1    
    32   16   57 1    
    33   17   18 1    
    34   17   58 1    
    35   17   59 1    
    36   18   19 1    
    37   18   20 1    
    38   18   60 1    
    39   19   20 1    
    40   19   61 1    
    41   19   62 1    
    42   20   63 1    
    43   20   64 1    
    44   21   22 2    
    45   21   23 am   BACKBONE|DICT|INTERRES
    46   23   24 1    
    47   23   65 1    
    48   24   25 1    
    49   24   32 1    
    50   24   66 1    
    51   25   26 1    
    52   25   67 1    
    53   25   68 1    
    54   26   27 1    
    55   26   31 1    
    56   26   69 1    
    57   27   28 2    
    58   27   29 am   BACKBONE|DICT|INTERRES
    59   29   30 1    
    60   29   70 1    
    61   30   31 1    
    62   30   71 1    
    63   30   72 1    
    64   31   73 1    
    65   31   74 1    
    66   32   33 1    
    67   32   34 1    
    68   32   84 1    
    69   33   75 1    
    70   34   35 2    
    71   34   36 am   BACKBONE|DICT|INTERRES
    72   36   37 1    
    73   36   76 1    
    74   37   38 1    
    75   37   77 1    
    76   37   78 1    
    77   38   39 ar   
    78   38   43 ar   
    79   39   40 ar   
    80   39   79 1    
    81   40   41 ar   
    82   40   80 1    
    83   41   42 ar   
    84   41   81 1    
    85   42   43 ar   
    86   42   82 1    
    87   43   83 1    
@<TRIPOS>SUBSTRUCTURE
     1 O6K         1 GROUP             0 B     ****    0 ROOT    
